test/data/C2FEN02312/scenario_3/case.raw
0,100.0,33,0,0,50.0
GRID OPTIMIZATION COMPETITION CHALLENGE 2
INPUT DATA FILES ARE RAW JSON CON
1,'            ',345.0,1,1,1,1,1.01089307,-13.20653975,1.1,0.9,1.1,0.9
2,'            ',345.0,1,1,1,1,1.01086584,-13.2071334,1.1,0.9,1.1,0.9
3,'            ',345.0,1,1,1,1,1.0097034,-12.53026222,1.1,0.9,1.1,0.9
4,'            ',345.0,1,1,1,1,1.00968818,-12.52871056,1.1,0.9,1.1,0.9
5,'            ',345.0,1,1,1,1,1.01842663,-12.93717862,1.1,0.9,1.1,0.9
6,'            ',345.0,1,1,1,1,1.01846908,-12.9356234,1.1,0.9,1.1,0.9
7,'            ',345.0,1,1,1,1,1.01126808,-12.82006096,1.1,0.9,1.1,0.9
8,'            ',345.0,1,1,1,1,1.01126467,-12.81869803,1.1,0.9,1.1,0.9
9,'            ',345.0,1,1,1,1,1.01530176,-13.19751115,1.1,0.9,1.1,0.9
10,'            ',345.0,1,1,1,1,1.0152197,-13.19383406,1.1,0.9,1.1,0.9
11,'            ',138.0,1,1,1,1,1.0192236,-12.97114225,1.1,0.9,1.1,0.9
12,'            ',138.0,1,1,1,1,1.01487807,-13.0002185,1.1,0.9,1.1,0.9
13,'            ',138.0,1,1,1,1,1.02149519,-12.35859034,1.1,0.9,1.1,0.9
14,'            ',138.0,1,1,1,1,1.01561577,-12.96430019,1.1,0.9,1.1,0.9
15,'            ',138.0,1,1,1,1,1.02107764,-12.38616584,1.1,0.9,1.1,0.9
16,'            ',138.0,1,1,1,1,1.02107891,-12.38604009,1.1,0.9,1.1,0.9
17,'            ',138.0,1,1,1,1,1.02253236,-12.56136111,1.1,0.9,1.1,0.9
18,'            ',138.0,1,1,1,1,1.02218742,-11.94560853,1.1,0.9,1.1,0.9
19,'            ',138.0,1,1,1,1,1.02216445,-11.93563134,1.1,0.9,1.1,0.9
20,'            ',138.0,1,1,1,1,1.02296885,-12.5315363,1.1,0.9,1.1,0.9
21,'            ',138.0,1,1,1,1,1.00855547,-13.12053105,1.1,0.9,1.1,0.9
22,'            ',138.0,1,1,1,1,1.00856215,-13.11520735,1.1,0.9,1.1,0.9
23,'            ',138.0,1,1,1,1,1.01842509,-13.93623637,1.1,0.9,1.1,0.9
24,'            ',138.0,2,1,1,1,1.02109514,-11.11314829,1.1,0.9,1.1,0.9
25,'            ',138.0,1,1,1,1,1.01840012,-12.93274541,1.1,0.9,1.1,0.9
26,'            ',138.0,1,1,1,1,1.01850312,-12.93290566,1.1,0.9,1.1,0.9
27,'            ',138.0,1,1,1,1,1.02166063,-12.4502146,1.1,0.9,1.1,0.9
28,'            ',138.0,1,1,1,1,1.0217943,-12.44320003,1.1,0.9,1.1,0.9
29,'            ',138.0,1,1,1,1,1.02185115,-12.32758298,1.1,0.9,1.1,0.9
30,'            ',138.0,1,1,1,1,1.02186219,-12.32693714,1.1,0.9,1.1,0.9
31,'            ',138.0,1,1,1,1,1.00476198,-14.77713123,1.1,0.9,1.1,0.9
32,'            ',138.0,1,1,1,1,1.00469444,-14.78766315,1.1,0.9,1.1,0.9
33,'            ',138.0,1,1,1,1,1.02225062,-11.59579545,1.1,0.9,1.1,0.9
34,'            ',138.0,1,1,1,1,1.02237745,-11.58980545,1.1,0.9,1.1,0.9
35,'            ',138.0,1,1,1,1,1.0194785,-12.7608388,1.1,0.9,1.1,0.9
36,'            ',138.0,1,1,1,1,1.0197224,-12.73465006,1.1,0.9,1.1,0.9
37,'            ',138.0,1,1,1,1,1.01948314,-12.76054665,1.1,0.9,1.1,0.9
38,'            ',138.0,1,1,1,1,1.01972231,-12.73464805,1.1,0.9,1.1,0.9
39,'            ',138.0,1,1,1,1,1.01525158,-14.74762883,1.1,0.9,1.1,0.9
40,'            ',138.0,1,1,1,1,1.0200935,-12.6840487,1.1,0.9,1.1,0.9
41,'            ',138.0,1,1,1,1,1.0200978,-12.68799682,1.1,0.9,1.1,0.9
42,'            ',138.0,1,1,1,1,1.0225787,-12.46217853,1.1,0.9,1.1,0.9
43,'            ',138.0,1,1,1,1,1.02259422,-12.46109079,1.1,0.9,1.1,0.9
44,'            ',138.0,1,1,1,1,1.00846309,-13.18182283,1.1,0.9,1.1,0.9
45,'            ',138.0,1,1,1,1,1.00845175,-13.19224278,1.1,0.9,1.1,0.9
46,'            ',138.0,2,1,1,1,1.01110714,-12.51341931,1.1,0.9,1.1,0.9
47,'            ',138.0,1,1,1,1,1.00919269,-14.28307907,1.1,0.9,1.1,0.9
48,'            ',138.0,1,1,1,1,1.0091189,-14.28445598,1.1,0.9,1.1,0.9
49,'            ',138.0,1,1,1,1,1.01017359,-15.1601784,1.1,0.9,1.1,0.9
50,'            ',138.0,1,1,1,1,1.01929947,-13.73866132,1.1,0.9,1.1,0.9
51,'            ',138.0,1,1,1,1,1.01929946,-13.73866108,1.1,0.9,1.1,0.9
52,'            ',138.0,1,1,1,1,1.00808818,-13.96767245,1.1,0.9,1.1,0.9
53,'            ',138.0,1,1,1,1,1.0111939,-12.21986857,1.1,0.9,1.1,0.9
54,'            ',138.0,1,1,1,1,1.02128962,-12.29171699,1.1,0.9,1.1,0.9
55,'            ',138.0,1,1,1,1,1.02131422,-12.30008968,1.1,0.9,1.1,0.9
56,'            ',138.0,1,1,1,1,1.01926939,-13.78396485,1.1,0.9,1.1,0.9
57,'            ',138.0,1,1,1,1,1.01918692,-13.76631646,1.1,0.9,1.1,0.9
58,'            ',138.0,1,1,1,1,1.02097799,-12.38979405,1.1,0.9,1.1,0.9
59,'            ',138.0,1,1,1,1,1.02228888,-12.3131783,1.1,0.9,1.1,0.9
60,'            ',138.0,1,1,1,1,1.00705066,-14.29467401,1.1,0.9,1.1,0.9
61,'            ',138.0,1,1,1,1,1.00706147,-14.29369993,1.1,0.9,1.1,0.9
62,'            ',138.0,1,1,1,1,1.022193,-11.94517897,1.1,0.9,1.1,0.9
63,'            ',138.0,1,1,1,1,1.02216774,-11.9353933,1.1,0.9,1.1,0.9
64,'            ',138.0,1,1,1,1,1.02125612,-12.37878186,1.1,0.9,1.1,0.9
65,'            ',138.0,1,1,1,1,1.02185985,-12.32528679,1.1,0.9,1.1,0.9
66,'            ',138.0,1,1,1,1,1.0181982,-14.02912827,1.1,0.9,1.1,0.9
67,'            ',138.0,1,1,1,1,1.01823882,-14.03504772,1.1,0.9,1.1,0.9
68,'            ',138.0,2,1,1,1,1.02363848,-11.16641284,1.1,0.9,1.1,0.9
69,'            ',138.0,1,1,1,1,1.01057149,-14.2558843,1.1,0.9,1.1,0.9
70,'            ',138.0,1,1,1,1,1.00673709,-13.3515963,1.1,0.9,1.1,0.9
71,'            ',345.0,1,2,1,1,1.00104047,-16.53687815,1.1,0.9,1.1,0.9
72,'            ',345.0,1,2,1,1,1.00104047,-16.53687815,1.1,0.9,1.1,0.9
73,'            ',345.0,1,2,1,1,1.02079095,-11.76266876,1.1,0.9,1.1,0.9
74,'            ',345.0,1,2,1,1,1.02079095,-11.76266876,1.1,0.9,1.1,0.9
75,'            ',345.0,1,2,1,1,1.00540668,-16.20884115,1.1,0.9,1.1,0.9
76,'            ',345.0,2,2,1,1,1.00540583,-16.20748195,1.1,0.9,1.1,0.9
77,'            ',500.0,2,2,1,1,1.00973775,-16.88712571,1.1,0.9,1.1,0.9
78,'            ',345.0,2,2,1,1,1.03886517,-11.01182584,1.1,0.9,1.1,0.9
79,'            ',345.0,1,2,1,1,1.00521407,-16.08313473,1.1,0.9,1.1,0.9
80,'            ',345.0,1,2,1,1,1.00521407,-16.08313473,1.1,0.9,1.1,0.9
81,'            ',345.0,1,2,1,1,1.00087882,-16.54070356,1.1,0.9,1.1,0.9
82,'            ',345.0,1,2,1,1,1.0008886,-16.53988182,1.1,0.9,1.1,0.9
83,'            ',138.0,1,2,1,1,1.00289633,-17.03416427,1.1,0.9,1.1,0.9
84,'            ',138.0,1,2,1,1,1.01245395,-14.08992858,1.1,0.9,1.1,0.9
85,'            ',138.0,1,2,1,1,1.00682289,-16.2451726,1.1,0.9,1.1,0.9
86,'            ',138.0,1,2,1,1,1.01063686,-14.78614597,1.1,0.9,1.1,0.9
87,'            ',138.0,1,2,1,1,1.01866507,-14.85025988,1.1,0.9,1.1,0.9
88,'            ',138.0,1,2,1,1,1.03228043,-12.63234763,1.1,0.9,1.1,0.9
89,'            ',138.0,1,2,1,1,1.00589344,-16.91501164,1.1,0.9,1.1,0.9
90,'            ',138.0,1,2,1,1,1.02067391,-12.94713246,1.1,0.9,1.1,0.9
91,'            ',138.0,1,2,1,1,1.03605187,-12.42566387,1.1,0.9,1.1,0.9
92,'            ',138.0,1,2,1,1,1.00682252,-16.23897693,1.1,0.9,1.1,0.9
93,'            ',138.0,1,2,1,1,1.00682252,-16.23897693,1.1,0.9,1.1,0.9
94,'            ',138.0,1,2,1,1,1.01787195,-17.0254191,1.1,0.9,1.1,0.9
95,'            ',138.0,1,2,1,1,1.03171361,-19.65676212,1.1,0.9,1.1,0.9
96,'            ',138.0,1,2,1,1,1.00361948,-17.08382209,1.1,0.9,1.1,0.9
97,'            ',138.0,1,2,1,1,1.0035562,-17.08910909,1.1,0.9,1.1,0.9
98,'            ',138.0,1,2,1,1,1.02771348,-11.78515406,1.1,0.9,1.1,0.9
99,'            ',138.0,2,2,1,1,1.0216167,-8.71066352,1.1,0.9,1.1,0.9
100,'            ',138.0,1,2,1,1,1.00652215,-17.54781772,1.1,0.9,1.1,0.9
101,'            ',138.0,1,2,1,1,1.00632654,-16.41194903,1.1,0.9,1.1,0.9
102,'            ',138.0,1,2,1,1,1.00171234,-17.10536786,1.1,0.9,1.1,0.9
103,'            ',138.0,1,2,1,1,1.02742645,-11.86764357,1.1,0.9,1.1,0.9
104,'            ',138.0,1,2,1,1,1.02006103,-18.56116783,1.1,0.9,1.1,0.9
105,'            ',138.0,1,2,1,1,1.00744833,-16.24015958,1.1,0.9,1.1,0.9
106,'            ',138.0,1,2,1,1,1.01056389,-16.26238685,1.1,0.9,1.1,0.9
107,'            ',138.0,1,2,1,1,1.02726786,-12.80843299,1.1,0.9,1.1,0.9
108,'            ',138.0,1,2,1,1,1.00325745,-17.08647328,1.1,0.9,1.1,0.9
109,'            ',138.0,1,2,1,1,1.01044418,-16.66563636,1.1,0.9,1.1,0.9
110,'            ',138.0,1,2,1,1,1.02018982,-15.77686491,1.1,0.9,1.1,0.9
111,'            ',138.0,1,2,1,1,1.01281231,-17.7971733,1.1,0.9,1.1,0.9
112,'            ',138.0,1,2,1,1,1.01122302,-16.58786462,1.1,0.9,1.1,0.9
113,'            ',138.0,1,2,1,1,1.01874516,-14.67787721,1.1,0.9,1.1,0.9
114,'            ',138.0,1,2,1,1,1.01167478,-14.35387001,1.1,0.9,1.1,0.9
115,'            ',138.0,1,2,1,1,1.01572488,-13.65436797,1.1,0.9,1.1,0.9
116,'            ',138.0,1,2,1,1,1.01477284,-18.06415421,1.1,0.9,1.1,0.9
117,'            ',138.0,1,2,1,1,1.04072125,-20.18834819,1.1,0.9,1.1,0.9
118,'            ',138.0,1,2,1,1,1.00266928,-17.09725802,1.1,0.9,1.1,0.9
119,'            ',138.0,1,2,1,1,1.01935796,-16.24044325,1.1,0.9,1.1,0.9
120,'            ',138.0,1,2,1,1,0.99105615,-17.02099129,1.1,0.9,1.1,0.9
121,'            ',138.0,1,2,1,1,0.99103924,-17.0211666,1.1,0.9,1.1,0.9
122,'            ',138.0,1,2,1,1,1.00064625,-17.21224198,1.1,0.9,1.1,0.9
123,'            ',138.0,1,2,1,1,1.00511416,-17.07807788,1.1,0.9,1.1,0.9
124,'            ',138.0,1,2,1,1,1.00296594,-17.00521015,1.1,0.9,1.1,0.9
125,'            ',138.0,1,2,1,1,1.00293187,-17.00108651,1.1,0.9,1.1,0.9
126,'            ',138.0,1,2,1,1,1.01026987,-15.36256847,1.1,0.9,1.1,0.9
127,'            ',138.0,1,2,1,1,1.01615418,-17.90571585,1.1,0.9,1.1,0.9
128,'            ',138.0,1,2,1,1,1.01623237,-17.91112675,1.1,0.9,1.1,0.9
129,'            ',138.0,1,2,1,1,1.00358037,-17.08601263,1.1,0.9,1.1,0.9
130,'            ',138.0,1,2,1,1,1.01842433,-14.6998221,1.1,0.9,1.1,0.9
131,'            ',138.0,1,2,1,1,1.01089629,-16.61061359,1.1,0.9,1.1,0.9
132,'            ',138.0,1,2,1,1,1.01483384,-18.0896171,1.1,0.9,1.1,0.9
133,'            ',138.0,1,2,1,1,1.01414404,-18.12056311,1.1,0.9,1.1,0.9
134,'            ',138.0,1,2,1,1,1.0144059,-18.0997782,1.1,0.9,1.1,0.9
135,'            ',138.0,2,2,1,1,1.04374744,-11.97550355,1.1,0.9,1.1,0.9
136,'            ',138.0,1,2,1,1,1.00360205,-16.9994526,1.1,0.9,1.1,0.9
137,'            ',138.0,1,2,1,1,1.00332078,-17.10448173,1.1,0.9,1.1,0.9
138,'            ',138.0,1,2,1,1,1.03700089,-19.97067848,1.1,0.9,1.1,0.9
139,'            ',138.0,1,2,1,1,1.00248917,-17.08602217,1.1,0.9,1.1,0.9
140,'            ',138.0,1,2,1,1,1.00818014,-15.71069355,1.1,0.9,1.1,0.9
141,'            ',138.0,1,2,1,1,1.01847548,-14.90462468,1.1,0.9,1.1,0.9
142,'            ',138.0,1,2,1,1,1.0150955,-18.06885986,1.1,0.9,1.1,0.9
143,'            ',138.0,1,2,1,1,1.01596197,-13.58419863,1.1,0.9,1.1,0.9
144,'            ',138.0,1,2,1,1,1.00527399,-16.94192751,1.1,0.9,1.1,0.9
145,'            ',138.0,1,2,1,1,1.01088061,-16.40983083,1.1,0.9,1.1,0.9
146,'            ',138.0,1,2,1,1,1.00513133,-17.22985824,1.1,0.9,1.1,0.9
147,'            ',138.0,1,2,1,1,1.0052046,-16.94646277,1.1,0.9,1.1,0.9
148,'            ',138.0,1,2,1,1,1.0006663,-17.22179169,1.1,0.9,1.1,0.9
149,'            ',138.0,1,2,1,1,1.00640703,-16.47253744,1.1,0.9,1.1,0.9
150,'            ',345.0,1,2,1,1,1.00358376,-17.25765219,1.1,0.9,1.1,0.9
151,'            ',345.0,1,3,1,1,1.00554138,-20.4277283,1.1,0.9,1.1,0.9
152,'            ',500.0,1,3,1,1,1.00430652,-19.97451895,1.1,0.9,1.1,0.9
153,'            ',500.0,1,3,1,1,1.00418322,-19.9795292,1.1,0.9,1.1,0.9
154,'            ',500.0,1,3,1,1,1.01241997,-17.81289406,1.1,0.9,1.1,0.9
155,'            ',500.0,1,3,1,1,1.01253223,-17.80982881,1.1,0.9,1.1,0.9
156,'            ',500.0,1,3,1,1,1.01356338,-16.77893477,1.1,0.9,1.1,0.9
157,'            ',345.0,1,3,1,1,1.02034151,-17.1880333,1.1,0.9,1.1,0.9
158,'            ',500.0,1,3,1,1,0.97910769,-17.67460124,1.1,0.9,1.1,0.9
159,'            ',500.0,1,3,1,1,0.97910769,-17.67460124,1.1,0.9,1.1,0.9
160,'            ',500.0,1,3,1,1,1.0158933,-15.74175561,1.1,0.9,1.1,0.9
161,'            ',500.0,1,3,1,1,1.01575924,-15.73211618,1.1,0.9,1.1,0.9
162,'            ',500.0,1,3,1,1,1.03701481,-14.23193283,1.1,0.9,1.1,0.9
163,'            ',500.0,1,3,1,1,1.01628683,-19.35426954,1.1,0.9,1.1,0.9
164,'            ',500.0,1,3,1,1,1.01617963,-19.36248317,1.1,0.9,1.1,0.9
165,'            ',500.0,1,3,1,1,1.01405608,-18.30289418,1.1,0.9,1.1,0.9
166,'            ',500.0,1,3,1,1,1.01406719,-18.29698987,1.1,0.9,1.1,0.9
167,'            ',138.0,1,3,1,1,1.0114805,-18.8221569,1.1,0.9,1.1,0.9
168,'            ',138.0,2,3,1,1,1.01306796,-16.96823464,1.1,0.9,1.1,0.9
169,'            ',138.0,1,3,1,1,1.01304777,-16.9866805,1.1,0.9,1.1,0.9
170,'            ',138.0,1,3,1,1,1.02346669,-14.9490421,1.1,0.9,1.1,0.9
171,'            ',138.0,1,3,1,1,1.01193889,-19.70883387,1.1,0.9,1.1,0.9
172,'            ',138.0,1,3,1,1,1.01115476,-19.52567293,1.1,0.9,1.1,0.9
173,'            ',32.0,1,3,1,1,1.03794393,-16.91895771,1.1,0.9,1.1,0.9
174,'            ',138.0,1,3,1,1,1.01619922,-15.92826392,1.1,0.9,1.1,0.9
175,'            ',138.0,1,3,1,1,1.01215302,-16.91517273,1.1,0.9,1.1,0.9
176,'            ',138.0,1,3,1,1,1.0121647,-16.91530189,1.1,0.9,1.1,0.9
177,'            ',138.0,1,3,1,1,1.00990587,-18.21022118,1.1,0.9,1.1,0.9
178,'            ',138.0,1,3,1,1,1.01012067,-18.21564015,1.1,0.9,1.1,0.9
179,'            ',138.0,1,3,1,1,1.01207475,-16.85837457,1.1,0.9,1.1,0.9
180,'            ',138.0,1,3,1,1,1.0120355,-16.92581124,1.1,0.9,1.1,0.9
181,'            ',138.0,1,3,1,1,1.01582974,-16.01053481,1.1,0.9,1.1,0.9
182,'            ',138.0,1,3,1,1,1.01221768,-16.95556428,1.1,0.9,1.1,0.9
183,'            ',138.0,1,3,1,1,1.01132339,-19.27041563,1.1,0.9,1.1,0.9
184,'            ',138.0,1,3,1,1,1.01116959,-19.24743237,1.1,0.9,1.1,0.9
185,'            ',138.0,2,3,1,1,1.03177951,-13.94974709,1.1,0.9,1.1,0.9
186,'            ',138.0,1,3,1,1,1.01240023,-16.97191593,1.1,0.9,1.1,0.9
187,'            ',16.0,1,3,1,1,1.03271443,-14.37529851,1.1,0.9,1.1,0.9
188,'            ',138.0,1,3,1,1,1.01241093,-18.31462764,1.1,0.9,1.1,0.9
189,'            ',138.0,1,3,1,1,1.01495983,-20.25020113,1.1,0.9,1.1,0.9
190,'            ',138.0,1,3,1,1,1.01122661,-19.52689537,1.1,0.9,1.1,0.9
191,'            ',138.0,1,3,1,1,1.01238539,-16.79068099,1.1,0.9,1.1,0.9
192,'            ',138.0,1,3,1,1,1.0113247,-17.62958799,1.1,0.9,1.1,0.9
193,'            ',138.0,1,3,1,1,1.01233242,-17.21711748,1.1,0.9,1.1,0.9
194,'            ',138.0,1,3,1,1,1.01603372,-15.94055073,1.1,0.9,1.1,0.9
195,'            ',138.0,1,3,1,1,1.01466106,-20.17937043,1.1,0.9,1.1,0.9
196,'            ',138.0,1,3,1,1,1.01457882,-20.35626145,1.1,0.9,1.1,0.9
197,'            ',138.0,1,3,1,1,1.01502017,-20.27322245,1.1,0.9,1.1,0.9
198,'            ',138.0,1,3,1,1,1.01258664,-20.0942283,1.1,0.9,1.1,0.9
199,'            ',138.0,1,3,1,1,1.01666469,-20.01736769,1.1,0.9,1.1,0.9
200,'            ',138.0,1,3,1,1,1.01659414,-20.02479647,1.1,0.9,1.1,0.9
...
0 / END OF BUS DATA BEGIN LOAD DATA
2,'99',0,1,1,4.7219998,-2.67599988,0.0,0.0,0.0,0.0,1,1,0
3,'1',1,1,1,1.00099976,0.68699983,0.0,0.0,0.0,0.0,1,1,0
4,'99',0,1,1,9.67099985,-3.50599994,0.0,0.0,0.0,0.0,1,1,0
6,'99',0,1,1,28.62,14.862,0.0,0.0,0.0,0.0,1,1,0
9,'1',1,1,1,6.54999981,13.39199962,0.0,0.0,0.0,0.0,1,1,0
9,'99',1,1,1,73.089,-50.693,0.0,0.0,0.0,0.0,1,1,0
10,'1',1,1,1,14.9429999,26.27699982,0.0,0.0,0.0,0.0,1,1,0
11,'1',1,1,1,4.50199979,2.70299988,0.0,0.0,0.0,0.0,1,1,0
12,'1',1,1,1,0.71999976,1.43999951,0.0,0.0,0.0,0.0,1,1,0
12,'99',1,1,1,6.83399982,2.40799994,0.0,0.0,0.0,0.0,1,1,0
13,'1',1,1,1,2.27799977,0.89599991,0.0,0.0,0.0,0.0,1,1,0
14,'1',1,1,1,1.57599977,0.35299995,0.0,0.0,0.0,0.0,1,1,0
14,'99',1,1,1,5.78199981,2.46999992,0.0,0.0,0.0,0.0,1,1,0
15,'1',1,1,1,0.15499975,0.03599994,0.0,0.0,0.0,0.0,1,1,0
17,'1',1,1,1,3.84399979,1.66299991,0.0,0.0,0.0,0.0,1,1,0
18,'1',1,1,1,0.88499976,0.28799992,0.0,0.0,0.0,0.0,1,1,0
19,'1',1,1,1,0.53999975,0.17999992,0.0,0.0,0.0,0.0,1,1,0
20,'1',1,1,1,0.57599976,-0.19399992,0.0,0.0,0.0,0.0,1,1,0
20,'99',1,1,1,6.81699982,-12.61399966,0.0,0.0,0.0,0.0,1,1,0
21,'1',1,1,1,5.2439998,1.11599996,0.0,0.0,0.0,0.0,1,1,0
23,'1',1,1,1,14.39599989,0.0,0.0,0.0,0.0,0.0,1,1,0
23,'99',1,1,1,0.90199976,-4.63099876,0.0,0.0,0.0,0.0,1,1,0
24,'1',1,1,1,3.07399978,1.80699987,0.0,0.0,0.0,0.0,1,1,0
25,'1',1,1,1,0.0,-0.07276759,0.0,0.0,0.0,0.0,1,1,0
26,'1',1,1,1,12.74399988,4.53799996,0.0,0.0,0.0,0.0,1,1,0
27,'1',1,1,1,1.61599977,0.53999992,0.0,0.0,0.0,0.0,1,1,0
29,'1',1,1,1,3.42299978,1.33499992,0.0,0.0,0.0,0.0,1,1,0
31,'1',1,1,1,1.76699977,0.61499992,0.0,0.0,0.0,0.0,1,1,0
32,'1',1,1,1,2.53699977,1.26299989,0.0,0.0,0.0,0.0,1,1,0
33,'1',1,1,1,2.53699977,1.66299985,0.0,0.0,0.0,0.0,1,1,0
35,'1',1,1,1,0.57599976,0.17999992,0.0,0.0,0.0,0.0,1,1,0
39,'1',1,1,1,1.69499977,0.17299998,0.0,0.0,0.0,0.0,1,1,0
39,'99',0,1,1,4.41199979,-0.17399999,0.0,0.0,0.0,0.0,1,1,0
41,'1',1,1,1,0.61499976,0.21599991,0.0,0.0,0.0,0.0,1,1,0
42,'1',1,1,1,2.19199977,0.32399997,0.0,0.0,0.0,0.0,1,1,0
43,'99',0,1,1,5.1569998,1.38899995,0.0,0.0,0.0,0.0,1,1,0
44,'1',1,1,1,1.60199977,0.28099996,0.0,0.0,0.0,0.0,1,1,0
44,'99',1,1,1,4.10199979,2.70999986,0.0,0.0,0.0,0.0,1,1,0
45,'1',1,1,1,1.78199977,0.82099989,0.0,0.0,0.0,0.0,1,1,0
46,'1',1,1,1,3.34699978,1.12299993,0.0,0.0,0.0,0.0,1,1,0
46,'99',1,1,1,10.03699985,4.49299993,0.0,0.0,0.0,0.0,1,1,0
47,'1',1,1,1,4.21499979,1.50799993,0.0,0.0,0.0,0.0,1,1,0
48,'1',1,1,1,0.0,0.02724247,0.0,0.0,0.0,0.0,1,1,0
49,'1',1,1,1,6.44999981,1.51499996,0.0,0.0,0.0,0.0,1,1,0
49,'99',0,1,1,8.45899983,-1.47099997,0.0,0.0,0.0,0.0,1,1,0
52,'1',1,1,1,6.69099982,2.13099994,0.0,0.0,0.0,0.0,1,1,0
53,'1',1,1,1,2.84999978,1.15899991,0.0,0.0,0.0,0.0,1,1,0
54,'1',1,1,1,1.38599976,0.75899987,0.0,0.0,0.0,0.0,1,1,0
55,'1',1,1,1,0.11499975,0.0,0.0,0.0,0.0,0.0,1,1,0
56,'1',1,1,1,2.54499977,0.94299992,0.0,0.0,0.0,0.0,1,1,0
57,'1',1,1,1,1.50099976,0.53599992,0.0,0.0,0.0,0.0,1,1,0
58,'1',1,1,1,1.42499976,0.49999992,0.0,0.0,0.0,0.0,1,1,0
58,'99',1,1,1,16.51699991,-2.61499999,0.0,0.0,0.0,0.0,1,1,0
59,'1',1,1,1,2.38599977,0.80299992,0.0,0.0,0.0,0.0,1,1,0
60,'1',1,1,1,0.53999975,0.14399993,0.0,0.0,0.0,0.0,1,1,0
61,'99',1,1,1,3.23199978,8.73399941,0.0,0.0,0.0,0.0,1,1,0
63,'1',1,1,1,1.69199977,0.55799992,0.0,0.0,0.0,0.0,1,1,0
64,'1',1,1,1,0.84599976,0.28799992,0.0,0.0,0.0,0.0,1,1,0
65,'1',1,1,1,0.76999976,0.25199992,0.0,0.0,0.0,0.0,1,1,0
66,'1',1,1,1,2.65999978,0.98299992,0.0,0.0,0.0,0.0,1,1,0
67,'1',1,1,1,3.47299978,1.34199992,0.0,0.0,0.0,0.0,1,1,0
68,'1',1,1,1,6.18999981,12.16899963,0.0,0.0,0.0,0.0,1,1,0
70,'1',1,1,1,8.99799984,2.51899996,0.0,0.0,0.0,0.0,1,1,0
75,'1',1,1,1,4.31899979,10.79699948,0.0,0.0,0.0,0.0,1,1,0
76,'1',1,1,1,7.16599982,13.16199967,0.0,0.0,0.0,0.0,1,1,0
77,'1',1,1,1,4.31899979,10.79699948,0.0,0.0,0.0,0.0,1,1,0
83,'1',1,1,1,4.12099979,0.94999995,0.0,0.0,0.0,0.0,1,1,0
84,'1',1,1,1,9.32499984,2.31099996,0.0,0.0,0.0,0.0,1,1,0
86,'1',1,1,1,2.17399977,0.87099991,0.0,0.0,0.0,0.0,1,1,0
86,'99',0,1,1,3.47799978,2.27199986,0.0,0.0,0.0,0.0,1,1,0
87,'1',1,1,1,1.08699976,0.4569999,0.0,0.0,0.0,0.0,1,1,0
88,'1',1,1,1,2.38599977,0.22999998,0.0,0.0,0.0,0.0,1,1,0
89,'1',1,1,1,4.49499979,1.74599992,0.0,0.0,0.0,0.0,1,1,0
90,'1',1,1,1,1.30599976,0.19099997,0.0,0.0,0.0,0.0,1,1,0
91,'1',1,1,1,1.27399976,0.41699992,0.0,0.0,0.0,0.0,1,1,0
92,'1',1,1,1,6.91699982,11.84099969,0.0,0.0,0.0,0.0,1,1,0
94,'1',1,1,1,0.82399976,0.30199991,0.0,0.0,0.0,0.0,1,1,0
95,'1',1,1,1,1.68799977,0.6869999,0.0,0.0,0.0,0.0,1,1,0
96,'1',1,1,1,0.03599975,-0.28399802,0.0,0.0,0.0,0.0,1,1,0
97,'1',1,1,1,0.03599975,0.01799987,0.0,0.0,0.0,0.0,1,1,0
97,'99',1,1,1,1.97099977,0.68999992,0.0,0.0,0.0,0.0,1,1,0
98,'1',1,1,1,1.08299976,1.8029996,0.0,0.0,0.0,0.0,1,1,0
98,'99',1,1,1,6.19899981,7.38199978,0.0,0.0,0.0,0.0,1,1,0
99,'1',1,1,1,0.00399972,0.00399972,0.0,0.0,0.0,0.0,1,1,0
99,'99',1,1,1,4.51899979,3.33299985,0.0,0.0,0.0,0.0,1,1,0
100,'1',1,1,1,4.6459998,1.70599993,0.0,0.0,0.0,0.0,1,1,0
101,'1',1,1,1,3.37199978,1.36399991,0.0,0.0,0.0,0.0,1,1,0
102,'1',1,1,1,5.0959998,2.04799992,0.0,0.0,0.0,0.0,1,1,0
103,'1',1,1,1,4.10299979,1.34599993,0.0,0.0,0.0,0.0,1,1,0
104,'1',1,1,1,3.74699979,1.36799992,0.0,0.0,0.0,0.0,1,1,0
107,'1',1,1,1,1.97599977,0.22999997,0.0,0.0,0.0,0.0,1,1,0
108,'1',1,1,1,2.47299977,0.71999993,0.0,0.0,0.0,0.0,1,1,0
109,'1',1,1,1,2.02299977,0.8349999,0.0,0.0,0.0,0.0,1,1,0
110,'1',1,1,1,1.49699976,0.6079999,0.0,0.0,0.0,0.0,1,1,0
111,'1',1,1,1,0.52499975,0.19099991,0.0,0.0,0.0,0.0,1,1,0
112,'1',1,1,1,0.64399976,0.2739999,0.0,0.0,0.0,0.0,1,1,0
113,'1',1,1,1,0.60099976,0.26599989,0.0,0.0,0.0,0.0,1,1,0
114,'1',1,1,1,1.11899976,0.30999993,0.0,0.0,0.0,0.0,1,1,0
115,'1',1,1,1,1.71699977,0.19399997,0.0,0.0,0.0,0.0,1,1,0
116,'1',1,1,1,2.54799977,0.64399994,0.0,0.0,0.0,0.0,1,1,0
117,'1',1,1,1,4.12099979,1.66999992,0.0,0.0,0.0,0.0,1,1,0
118,'1',1,1,1,3.03399978,1.21299991,0.0,0.0,0.0,0.0,1,1,0
119,'1',1,1,1,2.43699977,-0.61199994,0.0,0.0,0.0,0.0,1,1,0
120,'1',1,1,1,7.87099983,4.5559999,0.0,0.0,0.0,0.0,1,1,0
121,'1',1,1,1,8.99099984,8.34599985,0.0,0.0,0.0,0.0,1,1,0
122,'1',1,1,1,5.2439998,1.51899994,0.0,0.0,0.0,0.0,1,1,0
123,'1',1,1,1,5.80499981,1.70599994,0.0,0.0,0.0,0.0,1,1,0
124,'1',1,1,1,1.92199977,0.63699992,0.0,0.0,0.0,0.0,1,1,0
125,'1',1,1,1,2.04099977,2.10199976,0.0,0.0,0.0,0.0,1,1,0
126,'1',1,1,1,2.77099978,1.13699991,0.0,0.0,0.0,0.0,1,1,0
128,'1',1,1,1,2.66299978,0.91399992,0.0,0.0,0.0,0.0,1,1,0
129,'1',1,1,1,0.43199975,0.1689999,0.0,0.0,0.0,0.0,1,1,0
130,'1',1,1,1,2.05899977,0.83499991,0.0,0.0,0.0,0.0,1,1,0
131,'1',1,1,1,2.09799977,0.83499991,0.0,0.0,0.0,0.0,1,1,0
132,'1',1,1,1,2.24899977,0.62599994,0.0,0.0,0.0,0.0,1,1,0
133,'1',1,1,1,2.24899977,0.62599994,0.0,0.0,0.0,0.0,1,1,0
134,'1',1,1,1,0.22699975,0.07599992,0.0,0.0,0.0,0.0,1,1,0
135,'1',1,1,1,4.7259998,1.89999992,0.0,0.0,0.0,0.0,1,1,0
136,'1',1,1,1,3.37199978,1.29899992,0.0,0.0,0.0,0.0,1,1,0
137,'1',1,1,1,1.68399977,0.68399991,0.0,0.0,0.0,0.0,1,1,0
138,'1',1,1,1,2.32499977,0.91399991,0.0,0.0,0.0,0.0,1,1,0
139,'1',1,1,1,7.83199983,2.19499995,0.0,0.0,0.0,0.0,1,1,0
140,'1',1,1,1,0.74899976,0.3019999,0.0,0.0,0.0,0.0,1,1,0
141,'1',1,1,1,0.97499976,0.37799991,0.0,0.0,0.0,0.0,1,1,0
142,'1',1,1,1,1.46099976,0.19099997,0.0,0.0,0.0,0.0,1,1,0
146,'1',1,1,1,3.03399978,1.10099992,0.0,0.0,0.0,0.0,1,1,0
147,'1',1,1,1,1.34999976,0.30199995,0.0,0.0,0.0,0.0,1,1,0
148,'1',1,1,1,10.15299985,3.71799995,0.0,0.0,0.0,0.0,1,1,0
149,'1',1,1,1,0.56099976,0.2269999,0.0,0.0,0.0,0.0,1,1,0
150,'1',1,1,1,228.183,0.0,0.0,0.0,0.0,0.0,1,1,0
151,'99',1,1,1,29.333,30.915,0.0,0.0,0.0,0.0,1,1,0
156,'99',0,1,1,55.643,25.814,0.0,0.0,0.0,0.0,1,1,0
162,'99',1,1,1,12.49399987,21.65299978,0.0,0.0,0.0,0.0,1,1,0
165,'1',1,1,1,3.95899979,14.39599923,0.0,0.0,0.0,0.0,1,1,0
166,'1',1,1,1,1.79999977,3.59899953,0.0,0.0,0.0,0.0,1,1,0
167,'1',1,1,1,2.49399977,1.1189999,0.0,0.0,0.0,0.0,1,1,0
168,'1',1,1,1,5.2729998,0.35999999,0.0,0.0,0.0,0.0,1,1,0
169,'1',1,1,1,2.92999978,0.47499996,0.0,0.0,0.0,0.0,1,1,0
170,'1',1,1,1,5.0999998,1.51899994,0.0,0.0,0.0,0.0,1,1,0
171,'1',1,1,1,1.51899976,0.35999994,0.0,0.0,0.0,0.0,1,1,0
172,'99',1,1,1,47.475,20.535,0.0,0.0,0.0,0.0,1,1,0
175,'1',1,1,1,1.87899977,0.75899991,0.0,0.0,0.0,0.0,1,1,0
176,'1',1,1,1,0.93899976,0.35999991,0.0,0.0,0.0,0.0,1,1,0
177,'1',1,1,1,0.00399972,0.00399972,0.0,0.0,0.0,0.0,1,1,0
178,'1',1,1,1,0.00399972,0.00399972,0.0,0.0,0.0,0.0,1,1,0
179,'1',1,1,1,5.63999981,1.87899994,0.0,0.0,0.0,0.0,1,1,0
180,'1',1,1,1,6.03899981,1.69899995,0.0,0.0,0.0,0.0,1,1,0
181,'1',1,1,1,1.51899976,0.17999997,0.0,0.0,0.0,0.0,1,1,0
182,'1',1,1,1,3.90499979,0.35999998,0.0,0.0,0.0,0.0,1,1,0
183,'1',1,1,1,5.2799998,1.11899996,0.0,0.0,0.0,0.0,1,1,0
184,'1',1,1,1,2.71399978,0.35999997,0.0,0.0,0.0,0.0,1,1,0
185,'1',1,1,1,0.75899976,0.17999994,0.0,0.0,0.0,0.0,1,1,0
186,'1',1,1,1,2.06199977,0.35999996,0.0,0.0,0.0,0.0,1,1,0
188,'1',1,1,1,3.40099978,0.93899994,0.0,0.0,0.0,0.0,1,1,0
189,'1',1,1,1,1.51899976,0.35999994,0.0,0.0,0.0,0.0,1,1,0
191,'1',1,1,1,5.63999981,0.93899997,0.0,0.0,0.0,0.0,1,1,0
192,'1',1,1,1,7.15899982,2.45799994,0.0,0.0,0.0,0.0,1,1,0
193,'1',1,1,1,3.00199978,0.97499993,0.0,0.0,0.0,0.0,1,1,0
194,'1',1,1,1,6.03899981,2.27799993,0.0,0.0,0.0,0.0,1,1,0
195,'1',1,1,1,5.2799998,1.11899996,0.0,0.0,0.0,0.0,1,1,0
196,'1',1,1,1,1.87899977,0.0,0.0,0.0,0.0,0.0,1,1,0
196,'99',1,1,1,0.20899975,-0.0809999,0.0,0.0,0.0,0.0,1,1,0
197,'1',1,1,1,2.63799978,0.75899994,0.0,0.0,0.0,0.0,1,1,0
198,'1',1,1,1,1.87899977,0.17999998,0.0,0.0,0.0,0.0,1,1,0
201,'1',1,1,1,3.40099978,0.35999998,0.0,0.0,0.0,0.0,1,1,0
202,'1',1,1,1,3.00199978,0.35999997,0.0,0.0,0.0,0.0,1,1,0
202,'99',1,1,1,4.7439998,-0.12899999,0.0,0.0,0.0,0.0,1,1,0
203,'1',1,1,1,3.76099979,0.35999998,0.0,0.0,0.0,0.0,1,1,0
204,'1',1,1,1,3.00199978,1.11899992,0.0,0.0,0.0,0.0,1,1,0
206,'1',1,1,1,5.2799998,1.11899996,0.0,0.0,0.0,0.0,1,1,0
207,'1',1,1,1,10.95599986,1.51899998,0.0,0.0,0.0,0.0,1,1,0
208,'1',1,1,1,6.79899982,1.69899995,0.0,0.0,0.0,0.0,1,1,0
209,'1',1,1,1,4.15699979,0.35999998,0.0,0.0,0.0,0.0,1,1,0
210,'1',1,1,1,6.39899981,1.51899996,0.0,0.0,0.0,0.0,1,1,0
212,'99',1,1,1,0.09599975,-0.54199859,0.0,0.0,0.0,0.0,1,1,0
213,'99',1,1,1,1.09399976,-0.30999993,0.0,0.0,0.0,0.0,1,1,0
218,'99',1,1,1,4.8159998,46.78499803,0.0,0.0,0.0,0.0,1,1,0
221,'99',0,1,1,18.09199993,5.18599998,0.0,0.0,0.0,0.0,1,1,0
222,'99',1,1,1,35.253,21.805,0.0,0.0,0.0,0.0,1,1,0
223,'1',1,1,1,3.59899979,15.83599906,0.0,0.0,0.0,0.0,1,1,0
224,'1',1,1,1,3.59899979,15.83599906,0.0,0.0,0.0,0.0,1,1,0
225,'1',1,1,1,6.54999981,13.39199962,0.0,0.0,0.0,0.0,1,1,0
225,'99',0,1,1,1.74999977,-41.69399445,0.0,0.0,0.0,0.0,1,1,0
226,'99',0,1,1,14.6669999,-6.98599995,0.0,0.0,0.0,0.0,1,1,0
227,'1',1,1,1,0.0,-0.14350159,0.0,0.0,0.0,0.0,1,1,0
228,'1',1,1,1,0.0,-0.14350366,0.0,0.0,0.0,0.0,1,1,0
229,'1',1,1,1,1.30599976,0.46799991,0.0,0.0,0.0,0.0,1,1,0
231,'99',1,1,1,10.58099986,-3.50999995,0.0,0.0,0.0,0.0,1,1,0
232,'99',0,1,1,5.4649998,1.64299994,0.0,0.0,0.0,0.0,1,1,0
233,'1',1,1,1,3.84399979,1.66299991,0.0,0.0,0.0,0.0,1,1,0
234,'1',1,1,1,1.96199977,1.47899983,0.0,0.0,0.0,0.0,1,1,0
235,'1',1,1,1,0.07599975,0.08299973,0.0,0.0,0.0,0.0,1,1,0
235,'99',1,1,1,23.15999998,5.623,0.0,0.0,0.0,0.0,1,1,0
236,'1',1,1,1,0.57599976,-0.19399992,0.0,0.0,0.0,0.0,1,1,0
238,'1',1,1,1,20.51499995,6.94599998,0.0,0.0,0.0,0.0,1,1,0
241,'99',1,1,1,13.92999989,2.87099998,0.0,0.0,0.0,0.0,1,1,0
242,'1',1,1,1,0.42499975,0.07199996,0.0,0.0,0.0,0.0,1,1,0
243,'99',1,1,1,6.78399982,-3.5329999,0.0,0.0,0.0,0.0,1,1,0
244,'1',1,1,1,1.61599977,0.53999992,0.0,0.0,0.0,0.0,1,1,0
246,'1',1,1,1,3.59899979,15.83599906,0.0,0.0,0.0,0.0,1,1,0
...
0 / END OF LOAD DATA BEGIN FIXED SHUNT DATA
2,'99',1,0.0,-7.133
4,'99',1,0.0,-9.601
6,'99',1,0.0,41.987
32,'99',1,0.0,-1.306
39,'99',1,0.0,-0.488
43,'99',1,0.0,3.712
49,'99',1,0.0,-4.149
53,'99',1,0.0,-61.98
67,'99',1,0.0,3.708
86,'99',1,0.0,6.325
90,'99',1,0.0,-0.019
153,'99',1,0.0,-11.354
156,'99',1,0.0,75.294
157,'99',1,0.0,-27.072
158,'99',1,0.0,-322.112
161,'99',1,0.0,-124.239
221,'99',1,0.0,13.922
225,'99',1,0.0,-110.36
226,'99',1,0.0,-18.625
232,'99',1,0.0,4.355
245,'99',1,0.0,-10.356
253,'99',1,0.0,6.238
255,'99',1,0.0,7.309
271,'99',1,0.0,5.929
275,'99',1,0.0,84.787
277,'99',1,0.0,110.69
281,'99',1,0.0,2.151
285,'99',1,0.0,-161.346
309,'99',1,0.0,22.813
348,'99',1,0.0,-12.059
374,'99',1,0.0,-345.603
466,'99',1,0.0,-104.053
471,'99',1,0.0,-290.111
478,'99',1,0.0,64.761
577,'99',1,0.0,-7.123
579,'99',1,0.0,-9.607
580,'99',1,0.0,-102.36
581,'99',1,0.0,47.641
583,'99',1,0.0,-2.918
585,'99',1,0.0,13.934
589,'99',1,0.0,3.923
623,'99',1,0.0,8.01
624,'99',1,0.0,-7.008
636,'99',1,0.0,0.009
672,'99',1,0.0,12.795
690,'99',1,0.0,6.841
695,'99',1,0.0,16.47
698,'99',1,0.0,160.079
703,'99',1,0.0,-47.656
718,'99',1,0.0,-21.734
720,'99',1,0.0,20.121
723,'99',1,0.0,8.7
750,'99',1,0.0,13.261
760,'99',1,0.0,64.443
766,'99',1,0.0,115.888
817,'99',1,0.0,11.465
869,'99',1,0.0,5.172
883,'99',1,0.0,11.098
939,'99',1,0.0,11.802
942,'99',1,0.0,7.486
979,'99',1,0.0,14.306
983,'99',1,0.0,-5.456
995,'99',1,0.0,14.167
1012,'99',1,0.0,2.712
1013,'99',1,0.0,-10.135
1054,'99',1,0.0,2.499
1096,'99',1,0.0,-29.377
1135,'99',1,0.0,16.277
1226,'99',1,0.0,307.861
1241,'99',1,0.0,-9.766
1245,'99',1,0.0,28.8
1266,'99',1,0.0,1.091
1267,'99',1,0.0,-13.276
1351,'99',1,0.0,9.622
1359,'99',1,0.0,44.093
1376,'99',1,0.0,62.25
1377,'99',1,0.0,37.157
1384,'99',1,0.0,-0.278
1400,'99',1,0.0,13.892
1495,'99',1,0.0,-1.174
1496,'99',1,0.0,12.766
1525,'99',1,0.0,-18.886
1533,'99',1,0.0,-95.945
1557,'99',1,0.0,-31.028
1565,'99',1,0.0,-52.104
1621,'99',1,0.0,-73.418
1807,'99',1,0.0,-15.963
1877,'99',1,0.0,-5.368
1878,'99',1,0.0,12.724
1880,'99',1,0.0,-5.367
1923,'99',1,0.0,-9.083
1951,'99',1,0.0,0.756
1979,'99',1,0.0,0.624
1998,'99',1,0.0,4.345
1999,'99',1,0.0,17.297
2083,'99',1,0.0,28.513
2093,'99',1,0.0,103.474
2095,'99',1,0.0,-13.183
2109,'99',1,0.0,-38.789
2111,'99',1,0.0,-2.161
2129,'99',1,0.0,-0.089
2146,'99',1,0.0,-19.827
2172,'99',1,0.0,2.864
2174,'99',1,0.0,9.1
2179,'99',1,0.0,94.807
2192,'99',1,0.0,-0.371
2197,'99',1,0.0,5.815
2224,'99',1,0.0,1.293
2230,'99',1,0.0,-11.696
2244,'99',1,0.0,3.661
2246,'99',1,0.0,-32.703
2251,'99',1,0.0,17.159
2258,'99',1,0.0,9.498
2262,'99',1,0.0,-0.418
2269,'99',1,0.0,-361.197
2287,'99',1,0.0,191.001
2293,'99',1,0.0,-120.311
2296,'99',1,0.0,2.477
2297,'99',1,0.0,-130.348
2309,'99',1,0.0,30.957
2311,'99',1,0.0,-63.287
0 / END OF FIXED SHUNT DATA BEGIN GENERATOR DATA
9,'1',0.0,0.0,93.531,-93.531,1.01530176,0,100.0,0.0,1.0,0.0,0.0,1.0,0,100.0,301.471,135.0,1,1.0,0,1.0,0,1.0,0,1.0,0,1.0
10,'1',0.0,0.0,155.693,-155.693,1.0152197,0,100.0,0.0,1.0,0.0,0.0,1.0,0,100.0,501.832,171.516,1,1.0,0,1.0,0,1.0,0,1.0,0,1.0
10,'2',0.0,0.0,162.14,-162.14,1.0152197,0,100.0,0.0,1.0,0.0,0.0,1.0,0,100.0,522.609,178.876,1,1.0,0,1.0,0,1.0,0,1.0,0,1.0
11,'2',0.0,0.0,20.075,-20.075,1.0192236,0,100.0,0.0,1.0,0.0,0.0,1.0,0,100.0,64.706,35.833,1,1.0,0,1.0,0,1.0,0,1.0,0,1.0
12,'1',0.0,0.0,20.075,-20.075,1.01487807,0,100.0,0.0,1.0,0.0,0.0,1.0,0,100.0,64.706,35.833,1,1.0,0,1.0,0,1.0,0,1.0,0,1.0
24,'99',35.9727311,2.76628458,27.194,-27.194,1.02109514,0,100.0,0.0,1.0,0.0,0.0,1.0,1,100.0,87.653,3.0,1,1.0,0,1.0,0,1.0,0,1.0,0,1.0
26,'1',0.0,0.0,5.475,-5.475,1.01850312,0,100.0,0.0,1.0,0.0,0.0,1.0,0,100.0,17.647,3.0,1,1.0,0,1.0,0,1.0,0,1.0,0,1.0
46,'2',7.77024314,0.13412367,4.38,-4.38,1.01110714,0,100.0,0.0,1.0,0.0,0.0,1.0,1,100.0,14.118,3.0,1,1.0,0,1.0,0,1.0,0,1.0,0,1.0
68,'1',157.87151526,18.94415476,93.531,-93.531,1.02363848,0,100.0,0.0,1.0,0.0,0.0,1.0,1,100.0,301.471,135.0,1,1.0,0,1.0,0,1.0,0,1.0,0,1.0
75,'1',0.0,0.0,74.825,-74.825,1.00540668,0,100.0,0.0,1.0,0.0,0.0,1.0,0,100.0,241.176,135.0,1,1.0,0,1.0,0,1.0,0,1.0,0,1.0
76,'3',187.88118041,-20.14329139,84.68,-84.68,1.00540583,0,100.0,0.0,1.0,0.0,0.0,1.0,1,100.0,272.941,100.0,1,1.0,0,1.0,0,1.0,0,1.0,0,1.0
77,'1',0.0,0.0,91.25,-91.25,1.00973775,0,100.0,0.0,1.0,0.0,0.0,1.0,0,100.0,294.118,90.0,1,1.0,0,1.0,0,1.0,0,1.0,0,1.0
77,'99',105.4617662,-66.67787676,90.313,-90.313,1.00973775,0,100.0,0.0,1.0,0.0,0.0,1.0,1,100.0,291.099,14.555,1,1.0,0,1.0,0,1.0,0,1.0,0,1.0
78,'99',72.32043261,-21.5689184,63.457,-63.457,1.03886517,0,100.0,0.0,1.0,0.0,0.0,1.0,1,100.0,204.535,10.227,1,1.0,0,1.0,0,1.0,0,1.0,0,1.0
92,'1',0.0,0.0,81.03,-81.03,1.00682252,0,100.0,0.0,1.0,0.0,0.0,1.0,0,100.0,261.176,90.0,1,1.0,0,1.0,0,1.0,0,1.0,0,1.0
95,'1',0.0,0.0,104.755,-104.755,1.03171361,0,100.0,0.0,1.0,0.0,0.0,1.0,0,100.0,337.647,16.882,1,1.0,0,1.0,0,1.0,0,1.0,0,1.0
98,'1',0.0,0.0,24.044,-24.044,1.02771348,0,100.0,0.0,1.0,0.0,0.0,1.0,0,100.0,77.5,10.0,1,1.0,0,1.0,0,1.0,0,1.0,0,1.0
98,'2',0.0,0.0,97.455,-97.455,1.02771348,0,100.0,0.0,1.0,0.0,0.0,1.0,0,100.0,314.118,2.0,1,1.0,0,1.0,0,1.0,0,1.0,0,1.0
99,'1',193.50984936,-36.11980967,95.63,-95.63,1.0216167,0,100.0,0.0,1.0,0.0,0.0,1.0,1,100.0,308.235,1.0,1,1.0,0,1.0,0,1.0,0,1.0,0,1.0
112,'1',0.0,0.0,101.47,-101.47,1.01122302,0,100.0,0.0,1.0,0.0,0.0,1.0,0,100.0,327.059,16.353,1,1.0,0,1.0,0,1.0,0,1.0,0,1.0
112,'2',0.0,0.0,105.12,-105.12,1.01122302,0,100.0,0.0,1.0,0.0,0.0,1.0,0,100.0,338.824,1.0,1,1.0,0,1.0,0,1.0,0,1.0,0,1.0
120,'1',0.0,0.0,7.3,-7.3,0.99105615,0,100.0,0.0,1.0,0.0,0.0,1.0,0,100.0,23.529,5.0,1,1.0,0,1.0,0,1.0,0,1.0,0,1.0
125,'1',0.0,0.0,23.725,-23.725,1.00293187,0,100.0,0.0,1.0,0.0,0.0,1.0,0,100.0,76.471,40.0,1,1.0,0,1.0,0,1.0,0,1.0,0,1.0
127,'1',0.0,0.0,11.315,-11.315,1.01615418,0,100.0,0.0,1.0,0.0,0.0,1.0,0,100.0,36.471,3.0,1,1.0,0,1.0,0,1.0,0,1.0,0,1.0
128,'1',0.0,0.0,11.315,-11.315,1.01623237,0,100.0,0.0,1.0,0.0,0.0,1.0,0,100.0,36.471,3.0,1,1.0,0,1.0,0,1.0,0,1.0,0,1.0
135,'1',109.86746626,5.09003087,104.39,-104.39,1.04374744,0,100.0,0.0,1.0,0.0,0.0,1.0,1,100.0,336.471,1.0,1,1.0,0,1.0,0,1.0,0,1.0,0,1.0
138,'1',0.0,0.0,94.9,-94.9,1.03700089,0,100.0,0.0,1.0,0.0,0.0,1.0,0,100.0,305.882,15.294,1,1.0,0,1.0,0,1.0,0,1.0,0,1.0
150,'1',0.0,0.0,97.82,-97.82,1.00358376,0,100.0,0.0,1.0,0.0,0.0,1.0,0,100.0,315.294,15.765,1,1.0,0,1.0,0,1.0,0,1.0,0,1.0
165,'1',0.0,0.0,65.335,-65.335,1.01405608,0,100.0,0.0,1.0,0.0,0.0,1.0,0,100.0,210.588,10.529,1,1.0,0,1.0,0,1.0,0,1.0,0,1.0
165,'2',0.0,0.0,65.335,-65.335,1.01405608,0,100.0,0.0,1.0,0.0,0.0,1.0,0,100.0,210.588,10.529,1,1.0,0,1.0,0,1.0,0,1.0,0,1.0
165,'3',0.0,0.0,65.335,-65.335,1.01405608,0,100.0,0.0,1.0,0.0,0.0,1.0,0,100.0,210.588,10.529,1,1.0,0,1.0,0,1.0,0,1.0,0,1.0
166,'1',0.0,0.0,65.335,-65.335,1.01406719,0,100.0,0.0,1.0,0.0,0.0,1.0,0,100.0,210.588,3.6,1,1.0,0,1.0,0,1.0,0,1.0,0,1.0
168,'1',42.93496996,1.78837434,20.075,-20.075,1.01306796,0,100.0,0.0,1.0,0.0,0.0,1.0,1,100.0,64.706,26.0,1,1.0,0,1.0,0,1.0,0,1.0,0,1.0
171,'1',0.0,0.0,103.66,-103.66,1.01193889,0,100.0,0.0,1.0,0.0,0.0,1.0,0,100.0,334.118,16.706,1,1.0,0,1.0,0,1.0,0,1.0,0,1.0
177,'1',0.0,0.0,6.57,-6.57,1.00990587,0,100.0,0.0,1.0,0.0,0.0,1.0,0,100.0,21.176,3.0,1,1.0,0,1.0,0,1.0,0,1.0,0,1.0
178,'1',0.0,0.0,8.03,-8.03,1.01012067,0,100.0,0.0,1.0,0.0,0.0,1.0,0,100.0,25.882,3.0,1,1.0,0,1.0,0,1.0,0,1.0,0,1.0
183,'1',0.0,0.0,95.63,-95.63,1.01132339,0,100.0,0.0,1.0,0.0,0.0,1.0,0,100.0,308.235,10.973,1,1.0,0,1.0,0,1.0,0,1.0,0,1.0
185,'99',60.79106054,-36.14892955,99.645,-99.645,1.03177951,0,100.0,0.0,1.0,0.0,0.0,1.0,1,100.0,321.176,3.0,1,1.0,0,1.0,0,1.0,0,1.0,0,1.0
188,'1',0.0,0.0,109.135,-109.135,1.01241093,0,100.0,0.0,1.0,0.0,0.0,1.0,0,100.0,351.765,1.0,1,1.0,0,1.0,0,1.0,0,1.0,0,1.0
194,'1',0.0,0.0,103.66,-103.66,1.01603372,0,100.0,0.0,1.0,0.0,0.0,1.0,0,100.0,334.118,16.706,1,1.0,0,1.0,0,1.0,0,1.0,0,1.0
195,'1',0.0,0.0,93.44,-93.44,1.01466106,0,100.0,0.0,1.0,0.0,0.0,1.0,0,100.0,301.176,3.0,1,1.0,0,1.0,0,1.0,0,1.0,0,1.0
201,'1',0.0,0.0,106.215,-106.215,1.01341348,0,100.0,0.0,1.0,0.0,0.0,1.0,0,100.0,342.353,17.118,1,1.0,0,1.0,0,1.0,0,1.0,0,1.0
207,'1',0.0,0.0,107.31,-107.31,1.00927907,0,100.0,0.0,1.0,0.0,0.0,1.0,0,100.0,345.882,17.294,1,1.0,0,1.0,0,1.0,0,1.0,0,1.0
209,'1',0.0,0.0,95.265,-95.265,1.01179988,0,100.0,0.0,1.0,0.0,0.0,1.0,0,100.0,307.059,15.353,1,1.0,0,1.0,0,1.0,0,1.0,0,1.0
217,'99',79.55983198,16.81779355,62.42,-62.42,1.01608836,0,100.0,0.0,1.0,0.0,0.0,1.0,1,100.0,201.194,10.06,1,1.0,0,1.0,0,1.0,0,1.0,0,1.0
223,'1',0.0,0.0,98.101,-98.101,1.01265062,0,100.0,0.0,1.0,0.0,0.0,1.0,0,100.0,316.2,120.0,1,1.0,0,1.0,0,1.0,0,1.0,0,1.0
224,'1',203.9175468,2.3986869,98.094,-98.094,1.01271406,0,100.0,0.0,1.0,0.0,0.0,1.0,1,100.0,316.177,120.0,1,1.0,0,1.0,0,1.0,0,1.0,0,1.0
225,'1',195.85265732,27.77298998,93.531,-93.531,1.00897032,0,100.0,0.0,1.0,0.0,0.0,1.0,1,100.0,301.471,135.0,1,1.0,0,1.0,0,1.0,0,1.0,0,1.0
246,'1',195.63434696,7.85491684,98.094,-98.094,1.0228576,0,100.0,0.0,1.0,0.0,0.0,1.0,1,100.0,316.177,120.0,1,1.0,0,1.0,0,1.0,0,1.0,0,1.0
248,'99',31.58049334,0.08407825,22.027,-22.027,1.01811351,0,100.0,0.0,1.0,0.0,0.0,1.0,1,100.0,70.999,3.55,1,1.0,0,1.0,0,1.0,0,1.0,0,1.0
252,'1',94.47370722,14.45283535,57.031,-57.031,1.02022833,0,100.0,0.0,1.0,0.0,0.0,1.0,1,100.0,183.824,70.0,1,1.0,0,1.0,0,1.0,0,1.0,0,1.0
252,'2',0.0,0.0,45.625,-45.625,1.02022833,0,100.0,0.0,1.0,0.0,0.0,1.0,0,100.0,147.059,70.0,1,1.0,0,1.0,0,1.0,0,1.0,0,1.0
274,'1',0.0,0.0,108.405,-108.405,1.00810912,0,100.0,0.0,1.0,0.0,0.0,1.0,0,100.0,349.412,17.471,1,1.0,0,1.0,0,1.0,0,1.0,0,1.0
282,'98',21.96070575,-319.19405917,500.0,-500.0,0.98450654,0,100.0,0.0,1.0,0.0,0.0,1.0,1,100.0,40.0,3.0,1,1.0,0,1.0,0,1.0,0,1.0,0,1.0
289,'1',0.0,0.0,65.335,-65.335,1.02159305,0,100.0,0.0,1.0,0.0,0.0,1.0,0,100.0,210.588,10.529,1,1.0,0,1.0,0,1.0,0,1.0,0,1.0
289,'2',157.6068994,-18.48290713,65.335,-65.335,1.02159305,0,100.0,0.0,1.0,0.0,0.0,1.0,1,100.0,210.588,10.529,1,1.0,0,1.0,0,1.0,0,1.0,0,1.0
289,'3',0.0,0.0,65.335,-65.335,1.02159305,0,100.0,0.0,1.0,0.0,0.0,1.0,0,100.0,210.588,10.529,1,1.0,0,1.0,0,1.0,0,1.0,0,1.0
290,'1',0.0,0.0,65.335,-65.335,1.02155691,0,100.0,0.0,1.0,0.0,0.0,1.0,0,100.0,210.588,10.529,1,1.0,0,1.0,0,1.0,0,1.0,0,1.0
292,'1',44.02079225,-0.5760718,20.075,-20.075,1.01514992,0,100.0,0.0,1.0,0.0,0.0,1.0,1,100.0,64.706,26.0,1,1.0,0,1.0,0,1.0,0,1.0,0,1.0
295,'1',0.0,0.0,108.04,-108.04,1.02311598,0,100.0,0.0,1.0,0.0,0.0,1.0,0,100.0,348.235,17.412,1,1.0,0,1.0,0,1.0,0,1.0,0,1.0
297,'97',21.30760293,-1.40640589,547.5,-547.5,0.9857183,0,100.0,0.0,1.0,0.0,0.0,1.0,1,100.0,40.0,3.0,1,1.0,0,1.0,0,1.0,0,1.0,0,1.0
301,'1',0.0,0.0,6.57,-6.57,1.03090798,0,100.0,0.0,1.0,0.0,0.0,1.0,0,100.0,21.176,3.0,1,1.0,0,1.0,0,1.0,0,1.0,0,1.0
302,'1',0.0,0.0,8.03,-8.03,1.02965077,0,100.0,0.0,1.0,0.0,0.0,1.0,0,100.0,25.882,3.0,1,1.0,0,1.0,0,1.0,0,1.0,0,1.0
307,'1',0.0,0.0,107.31,-107.31,1.01942005,0,100.0,0.0,1.0,0.0,0.0,1.0,0,100.0,345.882,17.294,1,1.0,0,1.0,0,1.0,0,1.0,0,1.0
311,'97',24.5535811,-5.11441926,547.5,-547.5,0.97902521,0,100.0,0.0,1.0,0.0,0.0,1.0,1,100.0,40.0,3.0,1,1.0,0,1.0,0,1.0,0,1.0,0,1.0
312,'1',0.0,0.0,94.17,-94.17,1.0162522,0,100.0,0.0,1.0,0.0,0.0,1.0,0,100.0,303.529,1.0,1,1.0,0,1.0,0,1.0,0,1.0,0,1.0
318,'1',0.0,0.0,109.135,-109.135,1.01475546,0,100.0,0.0,1.0,0.0,0.0,1.0,0,100.0,351.765,6.73,1,1.0,0,1.0,0,1.0,0,1.0,0,1.0
319,'1',0.0,0.0,96.36,-96.36,1.03101858,0,100.0,0.0,1.0,0.0,0.0,1.0,0,100.0,310.588,15.529,1,1.0,0,1.0,0,1.0,0,1.0,0,1.0
325,'1',0.0,0.0,97.455,-97.455,1.02913709,0,100.0,0.0,1.0,0.0,0.0,1.0,0,100.0,314.118,15.706,1,1.0,0,1.0,0,1.0,0,1.0,0,1.0
331,'1',174.52897616,-6.31773864,92.71,-92.71,1.03464324,0,100.0,0.0,1.0,0.0,0.0,1.0,1,100.0,298.824,14.941,1,1.0,0,1.0,0,1.0,0,1.0,0,1.0
333,'1',0.0,0.0,97.455,-97.455,1.01849636,0,100.0,0.0,1.0,0.0,0.0,1.0,0,100.0,314.118,15.706,1,1.0,0,1.0,0,1.0,0,1.0,0,1.0
343,'1',0.0,0.0,147.451,-147.451,1.00333505,0,100.0,0.0,1.0,0.0,0.0,1.0,0,100.0,475.266,23.763,1,1.0,0,1.0,0,1.0,0,1.0,0,1.0
344,'1',0.0,0.0,147.451,-147.451,1.00333505,0,100.0,0.0,1.0,0.0,0.0,1.0,0,100.0,475.266,23.763,1,1.0,0,1.0,0,1.0,0,1.0,0,1.0
345,'1',0.0,0.0,147.467,-147.467,1.00333505,0,100.0,0.0,1.0,0.0,0.0,1.0,0,100.0,475.316,23.766,1,1.0,0,1.0,0,1.0,0,1.0,0,1.0
347,'1',0.0,0.0,134.137,-134.137,1.00207584,0,100.0,0.0,1.0,0.0,0.0,1.0,0,100.0,432.353,21.618,1,1.0,0,1.0,0,1.0,0,1.0,0,1.0
349,'1',0.0,0.0,98.55,-98.55,1.00152167,0,100.0,0.0,1.0,0.0,0.0,1.0,0,100.0,317.647,11.67,1,1.0,0,1.0,0,1.0,0,1.0,0,1.0
350,'1',0.0,0.0,98.55,-98.55,1.00062923,0,100.0,0.0,1.0,0.0,0.0,1.0,0,100.0,317.647,15.882,1,1.0,0,1.0,0,1.0,0,1.0,0,1.0
351,'1',0.0,0.0,98.55,-98.55,1.00152167,0,100.0,0.0,1.0,0.0,0.0,1.0,0,100.0,317.647,15.882,1,1.0,0,1.0,0,1.0,0,1.0,0,1.0
352,'1',0.0,0.0,98.55,-98.55,1.00152167,0,100.0,0.0,1.0,0.0,0.0,1.0,0,100.0,317.647,15.882,1,1.0,0,1.0,0,1.0,0,1.0,0,1.0
353,'1',260.23574646,-2.34234154,110.869,-110.869,0.98844023,0,100.0,0.0,1.0,0.0,0.0,1.0,1,100.0,357.353,17.868,1,1.0,0,1.0,0,1.0,0,1.0,0,1.0
354,'1',0.0,0.0,110.869,-110.869,1.00062923,0,100.0,0.0,1.0,0.0,0.0,1.0,0,100.0,357.353,17.868,1,1.0,0,1.0,0,1.0,0,1.0,0,1.0
355,'1',0.0,0.0,98.961,-98.961,1.00132321,0,100.0,0.0,1.0,0.0,0.0,1.0,0,100.0,318.971,15.949,1,1.0,0,1.0,0,1.0,0,1.0,0,1.0
356,'1',220.48425755,-3.45755386,98.961,-98.961,0.99043725,0,100.0,0.0,1.0,0.0,0.0,1.0,1,100.0,318.971,15.949,1,1.0,0,1.0,0,1.0,0,1.0,0,1.0
357,'1',0.0,0.0,98.961,-98.961,1.00132321,0,100.0,0.0,1.0,0.0,0.0,1.0,0,100.0,318.971,15.949,1,1.0,0,1.0,0,1.0,0,1.0,0,1.0
358,'1',305.92391898,-7.46757955,126.582,-126.582,0.98949466,0,100.0,0.0,1.0,0.0,0.0,1.0,1,100.0,408.0,20.4,1,1.0,0,1.0,0,1.0,0,1.0,0,1.0
360,'1',0.0,0.0,145.242,-145.242,1.00757515,0,100.0,0.0,1.0,0.0,0.0,1.0,0,100.0,468.145,23.407,1,1.0,0,1.0,0,1.0,0,1.0,0,1.0
361,'1',0.0,0.0,145.242,-145.242,1.00757515,0,100.0,0.0,1.0,0.0,0.0,1.0,0,100.0,468.145,23.407,1,1.0,0,1.0,0,1.0,0,1.0,0,1.0
362,'1',0.0,0.0,145.242,-145.242,1.00757515,0,100.0,0.0,1.0,0.0,0.0,1.0,0,100.0,468.145,23.407,1,1.0,0,1.0,0,1.0,0,1.0,0,1.0
364,'1',329.52356202,-1.78512942,132.769,-132.769,0.98866131,0,100.0,0.0,1.0,0.0,0.0,1.0,1,100.0,427.941,21.397,1,1.0,0,1.0,0,1.0,0,1.0,0,1.0
365,'1',0.0,0.0,132.769,-132.769,1.00056926,0,100.0,0.0,1.0,0.0,0.0,1.0,0,100.0,427.941,21.397,1,1.0,0,1.0,0,1.0,0,1.0,0,1.0
366,'1',174.59389529,1.47778486,80.072,-80.072,0.98856451,0,100.0,0.0,1.0,0.0,0.0,1.0,1,100.0,258.088,12.904,1,1.0,0,1.0,0,1.0,0,1.0,0,1.0
367,'1',0.0,0.0,80.072,-80.072,1.00056926,0,100.0,0.0,1.0,0.0,0.0,1.0,0,100.0,258.088,12.904,1,1.0,0,1.0,0,1.0,0,1.0,0,1.0
379,'99',259.25089471,73.03445173,285.277,-285.277,1.01101727,0,100.0,0.0,1.0,0.0,0.0,1.0,1,100.0,919.508,45.975,1,1.0,0,1.0,0,1.0,0,1.0,0,1.0
385,'99',198.70825915,-70.12456678,171.709,-171.709,1.00320088,0,100.0,0.0,1.0,0.0,0.0,1.0,1,100.0,553.454,27.673,1,1.0,0,1.0,0,1.0,0,1.0,0,1.0
392,'1',0.0,0.0,148.427,-148.427,1.00308971,0,100.0,0.0,1.0,0.0,0.0,1.0,0,100.0,478.409,23.92,1,1.0,0,1.0,0,1.0,0,1.0,0,1.0
393,'1',0.0,0.0,148.282,-148.282,1.00308971,0,100.0,0.0,1.0,0.0,0.0,1.0,0,100.0,477.944,23.897,1,1.0,0,1.0,0,1.0,0,1.0,0,1.0
394,'1',0.0,0.0,148.411,-148.411,1.00308971,0,100.0,0.0,1.0,0.0,0.0,1.0,0,100.0,478.359,23.918,1,1.0,0,1.0,0,1.0,0,1.0,0,1.0
395,'1',0.0,0.0,148.387,-148.387,1.00308971,0,100.0,0.0,1.0,0.0,0.0,1.0,0,100.0,478.281,23.914,1,1.0,0,1.0,0,1.0,0,1.0,0,1.0
397,'1',0.0,0.0,134.137,-134.137,1.01325368,0,100.0,0.0,1.0,0.0,0.0,1.0,0,100.0,432.353,21.618,1,1.0,0,1.0,0,1.0,0,1.0,0,1.0
399,'1',0.0,0.0,134.137,-134.137,1.01233072,0,100.0,0.0,1.0,0.0,0.0,1.0,0,100.0,432.353,21.618,1,1.0,0,1.0,0,1.0,0,1.0,0,1.0
400,'1',0.0,0.0,134.137,-134.137,1.01233072,0,100.0,0.0,1.0,0.0,0.0,1.0,0,100.0,432.353,21.618,1,1.0,0,1.0,0,1.0,0,1.0,0,1.0
402,'1',0.0,0.0,98.55,-98.55,1.01071693,0,100.0,0.0,1.0,0.0,0.0,1.0,0,100.0,317.647,15.882,1,1.0,0,1.0,0,1.0,0,1.0,0,1.0
403,'1',0.0,0.0,98.55,-98.55,1.00981629,0,100.0,0.0,1.0,0.0,0.0,1.0,0,100.0,317.647,15.882,1,1.0,0,1.0,0,1.0,0,1.0,0,1.0
404,'1',221.28889988,-17.98947927,98.55,-98.55,0.98886356,0,100.0,0.0,1.0,0.0,0.0,1.0,1,100.0,317.647,15.882,1,1.0,0,1.0,0,1.0,0,1.0,0,1.0
405,'1',0.0,0.0,98.55,-98.55,1.01071693,0,100.0,0.0,1.0,0.0,0.0,1.0,0,100.0,317.647,15.882,1,1.0,0,1.0,0,1.0,0,1.0,0,1.0
406,'1',0.0,0.0,110.869,-110.869,1.00981629,0,100.0,0.0,1.0,0.0,0.0,1.0,0,100.0,357.353,17.868,1,1.0,0,1.0,0,1.0,0,1.0,0,1.0
407,'1',242.72893172,-23.64735729,110.869,-110.869,0.98553183,0,100.0,0.0,1.0,0.0,0.0,1.0,1,100.0,357.353,17.868,1,1.0,0,1.0,0,1.0,0,1.0,0,1.0
408,'1',0.0,0.0,98.961,-98.961,1.01051665,0,100.0,0.0,1.0,0.0,0.0,1.0,0,100.0,318.971,15.949,1,1.0,0,1.0,0,1.0,0,1.0,0,1.0
409,'1',0.0,0.0,98.961,-98.961,1.01051665,0,100.0,0.0,1.0,0.0,0.0,1.0,0,100.0,318.971,15.949,1,1.0,0,1.0,0,1.0,0,1.0,0,1.0
410,'1',0.0,0.0,98.961,-98.961,1.01051665,0,100.0,0.0,1.0,0.0,0.0,1.0,0,100.0,318.971,15.949,1,1.0,0,1.0,0,1.0,0,1.0,0,1.0
411,'1',0.0,0.0,126.582,-126.582,1.00981629,0,100.0,0.0,1.0,0.0,0.0,1.0,0,100.0,408.0,20.4,1,1.0,0,1.0,0,1.0,0,1.0,0,1.0
414,'1',0.0,0.0,115.659,-115.659,1.01000861,0,100.0,0.0,1.0,0.0,0.0,1.0,0,100.0,372.794,18.64,1,1.0,0,1.0,0,1.0,0,1.0,0,1.0
415,'1',0.0,0.0,115.659,-115.659,1.01000861,0,100.0,0.0,1.0,0.0,0.0,1.0,0,100.0,372.794,3.0,1,1.0,0,1.0,0,1.0,0,1.0,0,1.0
416,'1',0.0,0.0,115.659,-115.659,1.01000861,0,100.0,0.0,1.0,0.0,0.0,1.0,0,100.0,372.794,18.64,1,1.0,0,1.0,0,1.0,0,1.0,0,1.0
417,'1',0.0,0.0,143.445,-143.445,1.01000861,0,100.0,0.0,1.0,0.0,0.0,1.0,0,100.0,462.353,23.118,1,1.0,0,1.0,0,1.0,0,1.0,0,1.0
418,'1',0.0,0.0,119.081,-119.081,1.01000861,0,100.0,0.0,1.0,0.0,0.0,1.0,0,100.0,383.824,19.191,1,1.0,0,1.0,0,1.0,0,1.0,0,1.0
419,'1',0.0,0.0,119.081,-119.081,1.01000861,0,100.0,0.0,1.0,0.0,0.0,1.0,0,100.0,383.824,3.615,1,1.0,0,1.0,0,1.0,0,1.0,0,1.0
420,'1',0.0,0.0,114.975,-114.975,1.01000861,0,100.0,0.0,1.0,0.0,0.0,1.0,0,100.0,370.588,18.529,1,1.0,0,1.0,0,1.0,0,1.0,0,1.0
421,'1',0.0,0.0,148.443,-148.443,1.00308971,0,100.0,0.0,1.0,0.0,0.0,1.0,0,100.0,478.464,23.923,1,1.0,0,1.0,0,1.0,0,1.0,0,1.0
423,'1',0.0,0.0,30.112,-30.112,1.01314266,0,100.0,0.0,1.0,0.0,0.0,1.0,0,100.0,97.059,4.853,1,1.0,0,1.0,0,1.0,0,1.0,0,1.0
424,'1',54.21739774,-2.41519017,30.112,-30.112,1.00999768,0,100.0,0.0,1.0,0.0,0.0,1.0,1,100.0,97.059,4.853,1,1.0,0,1.0,0,1.0,0,1.0,0,1.0
425,'1',0.0,0.0,30.797,-30.797,1.01314266,0,100.0,0.0,1.0,0.0,0.0,1.0,0,100.0,99.265,4.963,1,1.0,0,1.0,0,1.0,0,1.0,0,1.0
426,'1',0.0,0.0,30.797,-30.797,1.01314266,0,100.0,0.0,1.0,0.0,0.0,1.0,0,100.0,99.265,4.963,1,1.0,0,1.0,0,1.0,0,1.0,0,1.0
427,'1',0.0,0.0,30.797,-30.797,1.01314266,0,100.0,0.0,1.0,0.0,0.0,1.0,0,100.0,99.265,4.963,1,1.0,0,1.0,0,1.0,0,1.0,0,1.0
428,'1',0.0,0.0,30.797,-30.797,1.01314266,0,100.0,0.0,1.0,0.0,0.0,1.0,0,100.0,99.265,4.963,1,1.0,0,1.0,0,1.0,0,1.0,0,1.0
430,'1',0.0,0.0,132.769,-132.769,1.0097877,0,100.0,0.0,1.0,0.0,0.0,1.0,0,100.0,427.941,21.397,1,1.0,0,1.0,0,1.0,0,1.0,0,1.0
431,'1',322.15144016,-26.98908026,132.769,-132.769,0.98623808,0,100.0,0.0,1.0,0.0,0.0,1.0,1,100.0,427.941,21.397,1,1.0,0,1.0,0,1.0,0,1.0,0,1.0
432,'1',0.0,0.0,80.072,-80.072,1.0097877,0,100.0,0.0,1.0,0.0,0.0,1.0,0,100.0,258.088,12.904,1,1.0,0,1.0,0,1.0,0,1.0,0,1.0
433,'1',0.0,0.0,80.072,-80.072,1.0097877,0,100.0,0.0,1.0,0.0,0.0,1.0,0,100.0,258.088,12.904,1,1.0,0,1.0,0,1.0,0,1.0,0,1.0
444,'99',178.8104681,-65.71915111,150.637,-150.637,1.01517296,0,100.0,0.0,1.0,0.0,0.0,1.0,1,100.0,485.535,24.277,1,1.0,0,1.0,0,1.0,0,1.0,0,1.0
445,'99',149.90415253,-63.5516766,124.832,-124.832,1.02498255,0,100.0,0.0,1.0,0.0,0.0,1.0,1,100.0,402.359,20.118,1,1.0,0,1.0,0,1.0,0,1.0,0,1.0
452,'1',430.26950634,-73.79899747,155.917,-155.917,0.98903054,0,100.0,0.0,1.0,0.0,0.0,1.0,1,100.0,502.554,25.128,1,1.0,0,1.0,0,1.0,0,1.0,0,1.0
453,'1',0.0,0.0,155.856,-155.856,1.01401358,0,100.0,0.0,1.0,0.0,0.0,1.0,0,100.0,502.356,25.118,1,1.0,0,1.0,0,1.0,0,1.0,0,1.0
455,'1',414.33400399,-65.46010106,155.644,-155.644,0.98265566,0,100.0,0.0,1.0,0.0,0.0,1.0,1,100.0,501.673,25.084,1,1.0,0,1.0,0,1.0,0,1.0,0,1.0
456,'1',0.0,0.0,155.66,-155.66,1.00390993,0,100.0,0.0,1.0,0.0,0.0,1.0,0,100.0,501.726,25.086,1,1.0,0,1.0,0,1.0,0,1.0,0,1.0
457,'1',0.0,0.0,127.567,-127.567,1.00390993,0,100.0,0.0,1.0,0.0,0.0,1.0,0,100.0,411.176,20.559,1,1.0,0,1.0,0,1.0,0,1.0,0,1.0
458,'1',0.0,0.0,127.567,-127.567,1.00390993,0,100.0,0.0,1.0,0.0,0.0,1.0,0,100.0,411.176,20.559,1,1.0,0,1.0,0,1.0,0,1.0,0,1.0
459,'1',418.47384553,-46.41860634,155.49,-155.49,0.96611085,0,100.0,0.0,1.0,0.0,0.0,1.0,1,100.0,501.177,25.059,1,1.0,0,1.0,0,1.0,0,1.0,0,1.0
460,'1',0.0,0.0,125.925,-125.925,1.01401358,0,100.0,0.0,1.0,0.0,0.0,1.0,0,100.0,405.882,20.294,1,1.0,0,1.0,0,1.0,0,1.0,0,1.0
461,'1',0.0,0.0,125.925,-125.925,1.01401358,0,100.0,0.0,1.0,0.0,0.0,1.0,0,100.0,405.882,20.294,1,1.0,0,1.0,0,1.0,0,1.0,0,1.0
462,'1',0.0,0.0,155.811,-155.811,1.01401358,0,100.0,0.0,1.0,0.0,0.0,1.0,0,100.0,502.212,25.111,1,1.0,0,1.0,0,1.0,0,1.0,0,1.0
463,'97',23.14953084,-200.26607582,547.5,-547.5,0.99935649,0,100.0,0.0,1.0,0.0,0.0,1.0,1,100.0,40.0,3.0,1,1.0,0,1.0,0,1.0,0,1.0,0,1.0
464,'1',0.0,0.0,155.835,-155.835,1.00741582,0,100.0,0.0,1.0,0.0,0.0,1.0,0,100.0,502.287,25.114,1,1.0,0,1.0,0,1.0,0,1.0,0,1.0
465,'1',0.0,0.0,155.835,-155.835,1.00741582,0,100.0,0.0,1.0,0.0,0.0,1.0,0,100.0,502.287,22.5,1,1.0,0,1.0,0,1.0,0,1.0,0,1.0
468,'99',190.10716297,-65.17997999,145.406,-145.406,1.00746543,0,100.0,0.0,1.0,0.0,0.0,1.0,1,100.0,468.673,23.434,1,1.0,0,1.0,0,1.0,0,1.0,0,1.0
469,'99',138.73447353,-208.83176459,288.172,-288.172,1.00845031,0,100.0,0.0,1.0,0.0,0.0,1.0,1,100.0,928.836,46.442,1,1.0,0,1.0,0,1.0,0,1.0,0,1.0
470,'99',502.99150887,-265.75428064,404.842,-404.842,1.00114153,0,100.0,0.0,1.0,0.0,0.0,1.0,1,100.0,1304.888,65.244,1,1.0,0,1.0,0,1.0,0,1.0,0,1.0
480,'1',0.0,0.0,227.759,-227.759,1.01404858,0,100.0,0.0,1.0,0.0,0.0,1.0,0,100.0,734.113,36.706,1,1.0,0,1.0,0,1.0,0,1.0,0,1.0
488,'99',94.78777846,-11.29570045,63.368,-63.368,1.01147472,0,100.0,0.0,1.0,0.0,0.0,1.0,1,100.0,204.248,10.212,1,1.0,0,1.0,0,1.0,0,1.0,0,1.0
489,'99',96.65373702,-22.78303798,63.282,-63.282,1.0213171,0,100.0,0.0,1.0,0.0,0.0,1.0,1,100.0,203.969,10.198,1,1.0,0,1.0,0,1.0,0,1.0,0,1.0
507,'99',27.91632957,4.76203622,13.961,-13.961,1.00927672,0,100.0,0.0,1.0,0.0,0.0,1.0,1,100.0,44.999,3.0,1,1.0,0,1.0,0,1.0,0,1.0,0,1.0
509,'1',0.0,0.0,28.47,-28.47,1.00440132,0,100.0,0.0,1.0,0.0,0.0,1.0,0,100.0,91.765,11.0,1,1.0,0,1.0,0,1.0,0,1.0,0,1.0
527,'1',0.0,0.0,31.481,-31.481,1.00290993,0,100.0,0.0,1.0,0.0,0.0,1.0,0,100.0,101.471,21.0,1,1.0,0,1.0,0,1.0,0,1.0,0,1.0
546,'1',0.0,0.0,98.083,-98.083,1.00293675,0,100.0,0.0,1.0,0.0,0.0,1.0,0,100.0,316.143,15.807,1,1.0,0,1.0,0,1.0,0,1.0,0,1.0
558,'99',17.58088284,2.53672366,9.919,-9.919,1.01592821,0,100.0,0.0,1.0,0.0,0.0,1.0,1,100.0,31.969,3.0,1,1.0,0,1.0,0,1.0,0,1.0,0,1.0
588,'1',0.0,0.0,98.094,-98.094,1.01431329,0,100.0,0.0,1.0,0.0,0.0,1.0,0,100.0,316.177,120.0,1,1.0,0,1.0,0,1.0,0,1.0,0,1.0
589,'1',0.0,0.0,98.094,-98.094,1.01435024,0,100.0,0.0,1.0,0.0,0.0,1.0,0,100.0,316.177,120.0,1,1.0,0,1.0,0,1.0,0,1.0,0,1.0
594,'1',0.0,0.0,93.531,-93.531,1.01636246,0,100.0,0.0,1.0,0.0,0.0,1.0,0,100.0,301.471,135.0,1,1.0,0,1.0,0,1.0,0,1.0,0,1.0
595,'1',0.0,0.0,98.094,-98.094,1.01627841,0,100.0,0.0,1.0,0.0,0.0,1.0,0,100.0,316.177,135.0,1,1.0,0,1.0,0,1.0,0,1.0,0,1.0
595,'2',0.0,0.0,93.531,-93.531,1.01627841,0,100.0,0.0,1.0,0.0,0.0,1.0,0,100.0,301.471,135.0,1,1.0,0,1.0,0,1.0,0,1.0,0,1.0
596,'1',0.0,0.0,99.134,-99.134,1.01878529,0,100.0,0.0,1.0,0.0,0.0,1.0,0,100.0,319.529,135.0,1,1.0,0,1.0,0,1.0,0,1.0,0,1.0
596,'2',0.0,0.0,97.048,-97.048,1.01878529,0,100.0,0.0,1.0,0.0,0.0,1.0,0,100.0,312.807,135.0,1,1.0,0,1.0,0,1.0,0,1.0,0,1.0
600,'2',0.0,0.0,20.075,-20.075,1.02101804,0,100.0,0.0,1.0,0.0,0.0,1.0,0,100.0,64.706,35.833,1,1.0,0,1.0,0,1.0,0,1.0,0,1.0
601,'1',43.32598362,1.44566126,20.075,-20.075,1.02048754,0,100.0,0.0,1.0,0.0,0.0,1.0,1,100.0,64.706,35.833,1,1.0,0,1.0,0,1.0,0,1.0,0,1.0
606,'1',0.0,0.0,6.205,-6.205,1.01891867,0,100.0,0.0,1.0,0.0,0.0,1.0,0,100.0,20.0,3.0,1,1.0,0,1.0,0,1.0,0,1.0,0,1.0
630,'1',9.24874445,-0.11143539,5.475,-5.475,1.02125238,0,100.0,0.0,1.0,0.0,0.0,1.0,1,100.0,17.647,3.0,1,1.0,0,1.0,0,1.0,0,1.0,0,1.0
634,'1',0.0,0.0,98.094,-98.094,1.02271846,0,100.0,0.0,1.0,0.0,0.0,1.0,0,100.0,316.177,120.0,1,1.0,0,1.0,0,1.0,0,1.0,0,1.0
653,'2',7.38582492,-0.02913572,4.38,-4.38,1.01151528,0,100.0,0.0,1.0,0.0,0.0,1.0,1,100.0,14.118,3.0,1,1.0,0,1.0,0,1.0,0,1.0,0,1.0
654,'1',0.0,0.0,92.345,-92.345,1.01510993,0,100.0,0.0,1.0,0.0,0.0,1.0,0,100.0,297.647,14.882,1,1.0,0,1.0,0,1.0,0,1.0,0,1.0
686,'99',39.15039787,-5.37143687,30.606,-30.606,1.02186619,0,100.0,0.0,1.0,0.0,0.0,1.0,1,100.0,98.648,4.932,1,1.0,0,1.0,0,1.0,0,1.0,0,1.0
687,'1',0.0,0.0,93.531,-93.531,1.00963064,0,100.0,0.0,1.0,0.0,0.0,1.0,0,100.0,301.471,135.0,1,1.0,0,1.0,0,1.0,0,1.0,0,1.0
689,'2',189.19810852,13.38616512,93.531,-93.531,1.02175132,0,100.0,0.0,1.0,0.0,0.0,1.0,1,100.0,301.471,135.0,1,1.0,0,1.0,0,1.0,0,1.0,0,1.0
694,'1',127.38218624,-30.70197479,91.98,-91.98,1.01747711,0,100.0,0.0,1.0,0.0,0.0,1.0,1,100.0,296.471,14.824,1,1.0,0,1.0,0,1.0,0,1.0,0,1.0
695,'1',0.0,0.0,94.17,-94.17,1.02510878,0,100.0,0.0,1.0,0.0,0.0,1.0,0,100.0,303.529,15.176,1,1.0,0,1.0,0,1.0,0,1.0,0,1.0
696,'1',0.0,0.0,97.82,-97.82,1.0225385,0,100.0,0.0,1.0,0.0,0.0,1.0,0,100.0,315.294,15.765,1,1.0,0,1.0,0,1.0,0,1.0,0,1.0
697,'99',136.45167906,-116.48654998,145.304,-145.304,1.03653107,0,100.0,0.0,1.0,0.0,0.0,1.0,1,100.0,468.346,23.417,1,1.0,0,1.0,0,1.0,0,1.0,0,1.0
701,'1',0.0,0.0,91.98,-91.98,1.02434238,0,100.0,0.0,1.0,0.0,0.0,1.0,0,100.0,296.471,14.824,1,1.0,0,1.0,0,1.0,0,1.0,0,1.0
704,'2',0.0,0.0,4.745,-4.745,1.0151628,0,100.0,0.0,1.0,0.0,0.0,1.0,0,100.0,15.294,2.0,1,1.0,0,1.0,0,1.0,0,1.0,0,1.0
708,'2',0.0,0.0,24.234,-24.234,1.02318741,0,100.0,0.0,1.0,0.0,0.0,1.0,0,100.0,78.112,26.0,1,1.0,0,1.0,0,1.0,0,1.0,0,1.0
710,'99',36.72024812,-0.64027656,27.874,-27.874,1.0233594,0,100.0,0.0,1.0,0.0,0.0,1.0,1,100.0,89.845,4.492,1,1.0,0,1.0,0,1.0,0,1.0,0,1.0
732,'1',0.0,0.0,103.295,-103.295,1.02262391,0,100.0,0.0,1.0,0.0,0.0,1.0,0,100.0,332.941,16.647,1,1.0,0,1.0,0,1.0,0,1.0,0,1.0
733,'1',0.0,0.0,5.475,-5.475,1.03298374,0,100.0,0.0,1.0,0.0,0.0,1.0,0,100.0,17.647,3.0,1,1.0,0,1.0,0,1.0,0,1.0,0,1.0
739,'1',190.70015533,-5.26152647,96.36,-96.36,1.03904254,0,100.0,0.0,1.0,0.0,0.0,1.0,1,100.0,310.588,15.529,1,1.0,0,1.0,0,1.0,0,1.0,0,1.0
756,'3',369.57184022,23.07109511,157.406,-157.406,1.02569852,0,100.0,0.0,1.0,0.0,0.0,1.0,1,100.0,507.353,240.0,1,1.0,0,1.0,0,1.0,0,1.0,0,1.0
757,'1',0.0,0.0,168.812,-168.812,1.02268248,0,100.0,0.0,1.0,0.0,0.0,1.0,0,100.0,544.118,240.0,1,1.0,0,1.0,0,1.0,0,1.0,0,1.0
757,'2',311.78446072,30.59109396,135.05,-135.05,1.02268248,0,100.0,0.0,1.0,0.0,0.0,1.0,1,100.0,435.294,240.0,1,1.0,0,1.0,0,1.0,0,1.0,0,1.0
758,'1',901.24497493,14.95637445,617.946,-617.946,1.02453798,0,100.0,0.0,1.0,0.0,0.0,1.0,1,100.0,1991.769,5.0,1,1.0,0,1.0,0,1.0,0,1.0,0,1.0
758,'2',900.6612955,14.95637445,617.946,-617.946,1.02453798,0,100.0,0.0,1.0,0.0,0.0,1.0,1,100.0,1991.769,5.0,1,1.0,0,1.0,0,1.0,0,1.0,0,1.0
758,'3',901.09758703,14.95637445,617.946,-617.946,1.02453798,0,100.0,0.0,1.0,0.0,0.0,1.0,1,100.0,1991.769,5.0,1,1.0,0,1.0,0,1.0,0,1.0,0,1.0
759,'1',276.37079692,10.27986115,168.812,-168.812,1.02398541,0,100.0,0.0,1.0,0.0,0.0,1.0,1,100.0,544.118,240.0,1,1.0,0,1.0,0,1.0,0,1.0,0,1.0
759,'2',0.0,0.0,155.125,-155.125,1.02398541,0,100.0,0.0,1.0,0.0,0.0,1.0,0,100.0,500.0,240.0,1,1.0,0,1.0,0,1.0,0,1.0,0,1.0
759,'3',365.17876556,8.68548467,155.125,-155.125,1.02398541,0,100.0,0.0,1.0,0.0,0.0,1.0,1,100.0,500.0,240.0,1,1.0,0,1.0,0,1.0,0,1.0,0,1.0
784,'1',373.63391654,17.71146472,159.688,-159.688,1.01289829,0,100.0,0.0,1.0,0.0,0.0,1.0,1,100.0,514.706,240.0,1,1.0,0,1.0,0,1.0,0,1.0,0,1.0
792,'1',0.0,0.0,10.95,-10.95,1.02510528,0,100.0,0.0,1.0,0.0,0.0,1.0,0,100.0,35.294,3.0,1,1.0,0,1.0,0,1.0,0,1.0,0,1.0
805,'1',0.0,0.0,100.74,-100.74,1.02580686,0,100.0,0.0,1.0,0.0,0.0,1.0,0,100.0,324.706,16.235,1,1.0,0,1.0,0,1.0,0,1.0,0,1.0
805,'2',0.0,0.0,96.36,-96.36,1.02580686,0,100.0,0.0,1.0,0.0,0.0,1.0,0,100.0,310.588,15.529,1,1.0,0,1.0,0,1.0,0,1.0,0,1.0
805,'3',83.29122169,-2.49957386,100.01,-100.01,1.02580686,0,100.0,0.0,1.0,0.0,0.0,1.0,1,100.0,322.353,16.118,1,1.0,0,1.0,0,1.0,0,1.0,0,1.0
809,'1',0.0,0.0,21.9,-21.9,1.01513163,0,100.0,0.0,1.0,0.0,0.0,1.0,0,100.0,70.588,25.0,1,1.0,0,1.0,0,1.0,0,1.0,0,1.0
812,'1',60.68137075,-7.76413769,97.455,-97.455,1.02014045,0,100.0,0.0,1.0,0.0,0.0,1.0,1,100.0,314.118,1.667,1,1.0,0,1.0,0,1.0,0,1.0,0,1.0
830,'1',0.0,0.0,100.74,-100.74,1.02068645,0,100.0,0.0,1.0,0.0,0.0,1.0,0,100.0,324.706,16.235,1,1.0,0,1.0,0,1.0,0,1.0,0,1.0
...
0 / END OF GENERATOR DATA BEGIN BRANCH DATA
1,2,'1',2e-05,0.00021,0.0,876.0,1576.8,1576.8,0.0,0.0,0.0,0.0,1,1,0.0,1,1.0,0,1.0,0,1.0,0,1.0
1,10,'1',0.00593,0.04093,0.07215,341.0,613.8,613.8,0.0,0.0,0.0,0.0,1,1,0.0,1,1.0,0,1.0,0,1.0,0,1.0
2,507,'1',0.0001,0.01,0.0,83.7,150.66,150.66,0.0,0.0,0.0,0.0,1,1,0.0,1,1.0,0,1.0,0,1.0,0,1.0
3,4,'1',2e-05,0.00021,0.0,876.0,1576.8,1576.8,0.0,0.0,0.0,0.0,1,1,0.0,1,1.0,0,1.0,0,1.0,0,1.0
3,8,'1',0.00777,0.04128,0.06391,197.0,354.6,354.6,0.0,0.0,0.0,0.0,1,1,0.0,1,1.0,0,1.0,0,1.0,0,1.0
4,1027,'1',0.0001,0.01,0.0,198.78,357.81,357.81,0.0,0.0,0.0,0.0,1,1,0.0,1,1.0,0,1.0,0,1.0,0,1.0
5,6,'1',2e-05,0.00021,0.0,876.0,1576.8,1576.8,0.0,0.0,0.0,0.0,1,1,0.0,1,1.0,0,1.0,0,1.0,0,1.0
5,9,'1',0.00488,0.03362,0.05961,341.0,613.8,613.8,0.0,0.0,0.0,0.0,1,1,0.0,1,1.0,0,1.0,0,1.0,0,1.0
6,217,'1',0.0001,0.01,0.0,445.51,801.91,801.91,0.0,0.0,0.0,0.0,1,1,0.0,1,1.0,0,1.0,0,1.0,0,1.0
7,8,'1',2e-05,0.00021,0.0,876.0,1576.8,1576.8,0.0,0.0,0.0,0.0,1,1,0.0,1,1.0,0,1.0,0,1.0,0,1.0
7,10,'1',0.00455,0.03157,0.05531,231.0,415.8,415.8,0.0,0.0,0.0,0.0,1,1,0.0,1,1.0,0,1.0,0,1.0,0,1.0
9,10,'1',2e-05,0.00021,0.0,876.0,1576.8,1576.8,0.0,0.0,0.0,0.0,1,1,0.0,1,1.0,0,1.0,0,1.0,0,1.0
9,2095,'1',0.0001,0.01,0.0,140.51,252.91,252.91,0.0,0.0,0.0,0.0,1,1,0.0,1,1.0,0,1.0,0,1.0,0,1.0
11,23,'1',0.03868,0.10116,0.0108,87.61,157.7,157.7,0.0,0.0,0.0,0.0,1,1,0.0,1,1.0,0,1.0,0,1.0,0,1.0
11,26,'1',0.00719,0.02248,0.00246,50.0,90.0,90.0,0.0,0.0,0.0,0.0,1,1,0.0,1,1.0,0,1.0,0,1.0,0,1.0
11,43,'1',0.01636,0.04132,0.0045,50.0,90.0,90.0,0.0,0.0,0.0,0.0,1,1,0.0,1,1.0,0,1.0,0,1.0,0,1.0
12,14,'1',0.00752,0.02207,0.00251,80.22,144.4,144.4,0.0,0.0,0.0,0.0,1,1,0.0,1,1.0,0,1.0,0,1.0,0,1.0
12,25,'1',0.00719,0.02256,0.00247,50.0,90.0,90.0,0.0,0.0,0.0,0.0,1,1,0.0,1,1.0,0,1.0,0,1.0,0,1.0
13,59,'1',0.02256,0.04314,0.004,50.0,90.0,90.0,0.0,0.0,0.0,0.0,1,1,0.0,1,1.0,0,1.0,0,1.0,0,1.0
14,245,'1',0.0001,0.01,0.0,83.7,150.66,150.66,0.0,0.0,0.0,0.0,1,1,0.0,1,1.0,0,1.0,0,1.0,0,1.0
15,16,'1',0.00058,0.00157,0.00021,50.0,90.0,90.0,0.0,0.0,0.0,0.0,1,1,0.0,1,1.0,0,1.0,0,1.0,0,1.0
16,58,'1',0.00107,0.00298,0.0004,112.72,202.9,202.9,0.0,0.0,0.0,0.0,1,1,0.0,1,1.0,0,1.0,0,1.0,0,1.0
16,64,'1',0.00182,0.00529,0.00071,111.39,200.5,200.5,0.0,0.0,0.0,0.0,1,1,0.0,1,1.0,0,1.0,0,1.0,0,1.0
17,20,'1',0.00496,0.0162,0.00164,75.0,135.0,135.0,0.0,0.0,0.0,0.0,1,1,0.0,1,1.0,0,1.0,0,1.0,0,1.0
18,62,'1',0.00033,0.00099,0.00013,50.0,90.0,90.0,0.0,0.0,0.0,0.0,1,1,0.0,1,1.0,0,1.0,0,1.0,0,1.0
19,63,'1',0.00033,0.00091,0.00012,50.0,90.0,90.0,0.0,0.0,0.0,0.0,1,1,0.0,1,1.0,0,1.0,0,1.0,0,1.0
20,28,'1',0.00934,0.0257,0.00253,63.0,113.4,113.4,0.0,0.0,0.0,0.0,1,1,0.0,1,1.0,0,1.0,0,1.0,0,1.0
20,30,'1',0.01504,0.04033,0.00401,63.0,113.4,113.4,0.0,0.0,0.0,0.0,1,1,0.0,1,1.0,0,1.0,0,1.0,0,1.0
21,22,'1',8e-05,0.00083,0.0,438.0,788.4,788.4,0.0,0.0,0.0,0.0,1,1,0.0,1,1.0,0,1.0,0,1.0,0,1.0
21,44,'1',0.00512,0.01669,0.00168,114.0,205.2,205.2,0.0,0.0,0.0,0.0,1,1,0.0,1,1.0,0,1.0,0,1.0,0,1.0
22,46,'1',0.02826,0.0924,0.00933,99.0,178.2,178.2,0.0,0.0,0.0,0.0,1,1,0.0,1,1.0,0,1.0,0,1.0,0,1.0
24,46,'1',0.01669,0.04364,0.00566,106.38,191.48,191.48,0.0,0.0,0.0,0.0,1,1,0.0,1,1.0,0,1.0,0,1.0,0,1.0
24,271,'1',0.0001,0.01,0.0,83.7,150.66,150.66,0.0,0.0,0.0,0.0,1,1,0.0,1,1.0,0,1.0,0,1.0,0,1.0
24,1121,'1',0.03338,0.08728,0.00566,106.38,191.48,191.48,0.0,0.0,0.0,0.0,0,1,0.0,1,1.0,0,1.0,0,1.0,0,1.0
25,26,'1',8e-05,0.00083,0.0,50.0,90.0,90.0,0.0,0.0,0.0,0.0,1,1,0.0,1,1.0,0,1.0,0,1.0,0,1.0
25,38,'1',0.01595,0.0414,0.00404,50.0,90.0,90.0,0.0,0.0,0.0,0.0,1,1,0.0,1,1.0,0,1.0,0,1.0,0,1.0
26,37,'1',0.01595,0.04132,0.00403,50.0,90.0,90.0,0.0,0.0,0.0,0.0,1,1,0.0,1,1.0,0,1.0,0,1.0,0,1.0
26,41,'1',0.02926,0.0514,0.00489,50.0,90.0,90.0,0.0,0.0,0.0,0.0,1,1,0.0,1,1.0,0,1.0,0,1.0,0,1.0
27,28,'1',0.00554,0.00959,0.00095,50.0,90.0,90.0,0.0,0.0,0.0,0.0,1,1,0.0,1,1.0,0,1.0,0,1.0,0,1.0
28,64,'1',0.0057,0.01479,0.0015,63.0,113.4,113.4,0.0,0.0,0.0,0.0,1,1,0.0,1,1.0,0,1.0,0,1.0,0,1.0
29,30,'1',0.00017,0.00041,6e-05,75.0,135.0,135.0,0.0,0.0,0.0,0.0,1,1,0.0,1,1.0,0,1.0,0,1.0,0,1.0
30,65,'1',8e-05,0.00025,2e-05,75.0,135.0,135.0,0.0,0.0,0.0,0.0,1,1,0.0,1,1.0,0,1.0,0,1.0,0,1.0
31,32,'1',8e-05,0.00083,0.0,438.0,788.4,788.4,0.0,0.0,0.0,0.0,1,1,0.0,1,1.0,0,1.0,0,1.0,0,1.0
31,69,'1',0.01298,0.04074,0.0045,75.0,135.0,135.0,0.0,0.0,0.0,0.0,1,1,0.0,1,1.0,0,1.0,0,1.0,0,1.0
32,530,'1',0.0001,0.01,0.0,83.7,150.66,150.66,0.0,0.0,0.0,0.0,1,1,0.0,1,1.0,0,1.0,0,1.0,0,1.0
33,34,'1',0.00165,0.00537,0.00054,50.0,90.0,90.0,0.0,0.0,0.0,0.0,1,1,0.0,1,1.0,0,1.0,0,1.0,0,1.0
34,54,'1',0.01926,0.06198,0.00647,103.29,185.92,185.92,0.0,0.0,0.0,0.0,1,1,0.0,1,1.0,0,1.0,0,1.0,0,1.0
34,68,'1',0.01041,0.03388,0.00346,114.08,205.34,205.34,0.0,0.0,0.0,0.0,1,1,0.0,1,1.0,0,1.0,0,1.0,0,1.0
35,37,'1',0.0005,0.00107,0.00014,50.0,90.0,90.0,0.0,0.0,0.0,0.0,1,1,0.0,1,1.0,0,1.0,0,1.0,0,1.0
36,38,'1',0.0005,0.00116,0.00014,50.0,90.0,90.0,0.0,0.0,0.0,0.0,1,1,0.0,1,1.0,0,1.0,0,1.0,0,1.0
37,64,'1',0.03174,0.08347,0.00816,50.0,90.0,90.0,0.0,0.0,0.0,0.0,1,1,0.0,1,1.0,0,1.0,0,1.0,0,1.0
38,65,'1',0.03174,0.08347,0.00816,50.0,90.0,90.0,0.0,0.0,0.0,0.0,1,1,0.0,1,1.0,0,1.0,0,1.0,0,1.0
39,66,'1',0.03826,0.04818,0.00455,83.83,150.89,150.89,0.0,0.0,0.0,0.0,1,1,0.0,1,1.0,0,1.0,0,1.0,0,1.0
39,1234,'1',0.0001,0.01,0.0,83.7,150.66,150.66,0.0,0.0,0.0,0.0,1,1,0.0,1,1.0,0,1.0,0,1.0,0,1.0
40,41,'1',8e-05,0.00083,0.0,438.0,788.4,788.4,0.0,0.0,0.0,0.0,1,1,0.0,1,1.0,0,1.0,0,1.0,0,1.0
40,59,'1',0.04025,0.07132,0.00662,47.0,84.6,84.6,0.0,0.0,0.0,0.0,1,1,0.0,1,1.0,0,1.0,0,1.0,0,1.0
42,43,'1',0.00058,0.00099,0.0001,50.0,90.0,90.0,0.0,0.0,0.0,0.0,1,1,0.0,1,1.0,0,1.0,0,1.0,0,1.0
43,2259,'1',0.0001,0.01,0.0,50.0,90.0,90.0,0.0,0.0,0.0,0.0,1,1,0.0,1,1.0,0,1.0,0,1.0,0,1.0
...